@<TRIPOS>MOLECULE
../datasets/input/BACE/poses/27/ligand.pdb
 53 56 0 0 0
SMALL
GASTEIGER

@<TRIPOS>ATOM
      1  C         15.3110    5.3150    2.5950 C.3     0  UNK0       -0.0307
      2  C         14.9690    5.0170    1.1350 C.3     0  UNK0        0.0868
      3  O         15.4870    3.7530    0.7560 O.3     0  UNK0       -0.4922
      4  C         15.3580    3.3820   -0.5660 C.ar    0  UNK0        0.1211
      5  C         14.9830    4.2580   -1.6140 C.ar    0  UNK0       -0.0199
      6  C         14.9080    3.7840   -2.9350 C.ar    0  UNK0       -0.0577
      7  C         15.1870    2.4350   -3.2240 C.ar    0  UNK0       -0.0538
      8  C         15.5190    1.5300   -2.1920 C.ar    0  UNK0       -0.0144
      9  C         15.7100    0.0900   -2.4690 C.ar    0  UNK0       -0.0173
     10  C         16.2930   -0.3590   -3.6710 C.ar    0  UNK0       -0.0540
     11  C         16.4450   -1.7320   -3.9340 C.ar    0  UNK0       -0.0607
     12  C         15.9770   -2.6890   -3.0150 C.ar    0  UNK0       -0.0520
     13  C         15.3660   -2.2720   -1.8080 C.ar    0  UNK0        0.0193
     14  C         14.7940   -3.2740   -0.7900 C.3     0  UNK0        0.1513
     15  C         15.1440   -4.7550   -1.0650 C.ar    0  UNK0        0.0187
     16  C         14.3020   -5.6420   -1.7780 C.ar    0  UNK0       -0.0521
     17  C         14.6610   -6.9930   -1.9600 C.ar    0  UNK0       -0.0613
     18  C         15.8810   -7.4750   -1.4580 C.ar    0  UNK0       -0.0617
     19  C         16.7450   -6.6030   -0.7850 C.ar    0  UNK0       -0.0613
     20  C         16.3660   -5.2670   -0.5790 C.ar    0  UNK0       -0.0521
     21  N         15.2240   -2.9270    0.5660 N.4     0  UNK0        0.3817
     22  C         14.2060   -2.6300    1.3710 C.3     0  UNK0        0.2310
     23  N         14.3870   -2.3470    2.6640 N.3     0  UNK0       -0.2608
     24  N         13.0340   -2.6640    0.7230 N.am    0  UNK0       -0.2329
     25  C         11.7160   -2.3160    1.2690 C.3     0  UNK0        0.0103
     26  C         13.2730   -3.0390   -0.6330 C.2     0  UNK0        0.2833
     27  O         12.3890   -3.1130   -1.4960 O.2     0  UNK0       -0.2680
     28  C         15.2700   -0.8820   -1.5450 C.ar    0  UNK0       -0.0443
     29  C         15.6150    2.0340   -0.8760 C.ar    0  UNK0       -0.0122
     30  H         14.9230    6.2870    2.8970 H       0  UNK0        0.0262
     31  H         14.8800    4.5680    3.2560 H       0  UNK0        0.0262
     32  H         16.3870    5.3160    2.7610 H       0  UNK0        0.0262
     33  H         13.8920    5.0230    0.9900 H       0  UNK0        0.0694
     34  H         15.3900    5.8040    0.5180 H       0  UNK0        0.0694
     35  H         14.7480    5.2970   -1.4410 H       0  UNK0        0.0654
     36  H         14.6160    4.4610   -3.7230 H       0  UNK0        0.0619
     37  H         15.1000    2.0870   -4.2440 H       0  UNK0        0.0624
     38  H         16.6340    0.3560   -4.4040 H       0  UNK0        0.0624
     39  H         16.9150   -2.0430   -4.8560 H       0  UNK0        0.0618
     40  H         16.0920   -3.7360   -3.2600 H       0  UNK0        0.0623
     41  H         13.3610   -5.3120   -2.1810 H       0  UNK0        0.0623
     42  H         13.9960   -7.6660   -2.4820 H       0  UNK0        0.0618
     43  H         16.1580   -8.5080   -1.5700 H       0  UNK0        0.0618
     44  H         17.6910   -6.9580   -0.4010 H       0  UNK0        0.0618
     45  H         17.0280   -4.6320   -0.0190 H       0  UNK0        0.0623
     46  H         16.2050   -2.9150    0.8450 H       0  UNK0        0.2432
     47  H         13.6480   -2.0490    3.3000 H       0  UNK0        0.1257
     48  H         10.9190   -2.8650    0.7660 H       0  UNK0        0.0431
     49  H         11.6610   -2.5400    2.3330 H       0  UNK0        0.0431
     50  H         11.5360   -1.2500    1.1270 H       0  UNK0        0.0431
     51  H         14.8040   -0.5410   -0.6320 H       0  UNK0        0.0629
     52  H         15.8750    1.3710   -0.0680 H       0  UNK0        0.0660
     53  H         15.3330   -2.3470    3.0480 H       0  UNK0        0.1257
@<TRIPOS>BOND
     1     1     2    1
     2     1    30    1
     3     1    31    1
     4     1    32    1
     5     2     3    1
     6     2    33    1
     7     2    34    1
     8     3     4    1
     9     4     5   ar
    10     4    29   ar
    11     5     6   ar
    12     5    35    1
    13     6     7   ar
    14     6    36    1
    15     7     8   ar
    16     7    37    1
    17     8     9    1
    18     8    29   ar
    19     9    10   ar
    20     9    28   ar
    21    10    11   ar
    22    10    38    1
    23    11    12   ar
    24    11    39    1
    25    12    13   ar
    26    12    40    1
    27    13    14    1
    28    13    28   ar
    29    14    15    1
    30    14    21    1
    31    14    26    1
    32    15    16   ar
    33    15    20   ar
    34    16    17   ar
    35    16    41    1
    36    17    18   ar
    37    17    42    1
    38    18    19   ar
    39    18    43    1
    40    19    20   ar
    41    19    44    1
    42    20    45    1
    43    21    22    1
    44    21    46    1
    45    22    23    1
    46    22    24    1
    47    23    47    1
    48    23    53    1
    49    24    25    1
    50    24    26   am
    51    25    48    1
    52    25    49    1
    53    25    50    1
    54    26    27    2
    55    28    51    1
    56    29    52    1
