../datasets/input/BACE/poses/27/ligand.pdb
 OpenBabel02191913393D

 53 56  0  0  1  0  0  0  0  0999 V2000
   15.3110    5.3150    2.5950 C   0  0  0  0  0  0  0  0  0  0  0  0
   14.9690    5.0170    1.1350 C   0  0  0  0  0  0  0  0  0  0  0  0
   15.4870    3.7530    0.7560 O   0  0  0  0  0  0  0  0  0  0  0  0
   15.3580    3.3820   -0.5660 C   0  0  0  0  0  0  0  0  0  0  0  0
   14.9830    4.2580   -1.6140 C   0  0  0  0  0  0  0  0  0  0  0  0
   14.9080    3.7840   -2.9350 C   0  0  0  0  0  0  0  0  0  0  0  0
   15.1870    2.4350   -3.2240 C   0  0  0  0  0  0  0  0  0  0  0  0
   15.5190    1.5300   -2.1920 C   0  0  0  0  0  0  0  0  0  0  0  0
   15.7100    0.0900   -2.4690 C   0  0  0  0  0  0  0  0  0  0  0  0
   16.2930   -0.3590   -3.6710 C   0  0  0  0  0  0  0  0  0  0  0  0
   16.4450   -1.7320   -3.9340 C   0  0  0  0  0  0  0  0  0  0  0  0
   15.9770   -2.6890   -3.0150 C   0  0  0  0  0  0  0  0  0  0  0  0
   15.3660   -2.2720   -1.8080 C   0  0  0  0  0  0  0  0  0  0  0  0
   14.7940   -3.2740   -0.7900 C   0  0  1  0  0  0  0  0  0  0  0  0
   15.1440   -4.7550   -1.0650 C   0  0  0  0  0  0  0  0  0  0  0  0
   14.3020   -5.6420   -1.7780 C   0  0  0  0  0  0  0  0  0  0  0  0
   14.6610   -6.9930   -1.9600 C   0  0  0  0  0  0  0  0  0  0  0  0
   15.8810   -7.4750   -1.4580 C   0  0  0  0  0  0  0  0  0  0  0  0
   16.7450   -6.6030   -0.7850 C   0  0  0  0  0  0  0  0  0  0  0  0
   16.3660   -5.2670   -0.5790 C   0  0  0  0  0  0  0  0  0  0  0  0
   15.2240   -2.9270    0.5660 N   0  3  0  0  0  0  0  0  0  0  0  0
   14.2060   -2.6300    1.3710 C   0  0  2  0  0  0  0  0  0  0  0  0
   14.3870   -2.3470    2.6640 N   0  0  0  0  0  0  0  0  0  0  0  0
   13.0340   -2.6640    0.7230 N   0  0  0  0  0  0  0  0  0  0  0  0
   11.7160   -2.3160    1.2690 C   0  0  0  0  0  0  0  0  0  0  0  0
   13.2730   -3.0390   -0.6330 C   0  0  0  0  0  0  0  0  0  0  0  0
   12.3890   -3.1130   -1.4960 O   0  0  0  0  0  0  0  0  0  0  0  0
   15.2700   -0.8820   -1.5450 C   0  0  0  0  0  0  0  0  0  0  0  0
   15.6150    2.0340   -0.8760 C   0  0  0  0  0  0  0  0  0  0  0  0
   14.9230    6.2870    2.8970 H   0  0  0  0  0  0  0  0  0  0  0  0
   14.8800    4.5680    3.2560 H   0  0  0  0  0  0  0  0  0  0  0  0
   16.3870    5.3160    2.7610 H   0  0  0  0  0  0  0  0  0  0  0  0
   13.8920    5.0230    0.9900 H   0  0  0  0  0  0  0  0  0  0  0  0
   15.3900    5.8040    0.5180 H   0  0  0  0  0  0  0  0  0  0  0  0
   14.7480    5.2970   -1.4410 H   0  0  0  0  0  0  0  0  0  0  0  0
   14.6160    4.4610   -3.7230 H   0  0  0  0  0  0  0  0  0  0  0  0
   15.1000    2.0870   -4.2440 H   0  0  0  0  0  0  0  0  0  0  0  0
   16.6340    0.3560   -4.4040 H   0  0  0  0  0  0  0  0  0  0  0  0
   16.9150   -2.0430   -4.8560 H   0  0  0  0  0  0  0  0  0  0  0  0
   16.0920   -3.7360   -3.2600 H   0  0  0  0  0  0  0  0  0  0  0  0
   13.3610   -5.3120   -2.1810 H   0  0  0  0  0  0  0  0  0  0  0  0
   13.9960   -7.6660   -2.4820 H   0  0  0  0  0  0  0  0  0  0  0  0
   16.1580   -8.5080   -1.5700 H   0  0  0  0  0  0  0  0  0  0  0  0
   17.6910   -6.9580   -0.4010 H   0  0  0  0  0  0  0  0  0  0  0  0
   17.0280   -4.6320   -0.0190 H   0  0  0  0  0  0  0  0  0  0  0  0
   16.2050   -2.9150    0.8450 H   0  0  0  0  0  0  0  0  0  0  0  0
   13.6480   -2.0490    3.3000 H   0  0  0  0  0  0  0  0  0  0  0  0
   10.9190   -2.8650    0.7660 H   0  0  0  0  0  0  0  0  0  0  0  0
   11.6610   -2.5400    2.3330 H   0  0  0  0  0  0  0  0  0  0  0  0
   11.5360   -1.2500    1.1270 H   0  0  0  0  0  0  0  0  0  0  0  0
   14.8040   -0.5410   -0.6320 H   0  0  0  0  0  0  0  0  0  0  0  0
   15.8750    1.3710   -0.0680 H   0  0  0  0  0  0  0  0  0  0  0  0
   15.3330   -2.3470    3.0480 H   0  0  0  0  0  0  0  0  0  0  0  0
  1  2  1  0  0  0  0
  1 30  1  0  0  0  0
  1 31  1  0  0  0  0
  1 32  1  0  0  0  0
  2  3  1  0  0  0  0
  2 33  1  0  0  0  0
  2 34  1  0  0  0  0
  3  4  1  0  0  0  0
  4  5  2  0  0  0  0
  4 29  1  0  0  0  0
  5  6  1  0  0  0  0
  5 35  1  0  0  0  0
  6  7  2  0  0  0  0
  6 36  1  0  0  0  0
  7  8  1  0  0  0  0
  7 37  1  0  0  0  0
  8  9  1  0  0  0  0
  8 29  2  0  0  0  0
  9 10  2  0  0  0  0
  9 28  1  0  0  0  0
 10 11  1  0  0  0  0
 10 38  1  0  0  0  0
 11 12  2  0  0  0  0
 11 39  1  0  0  0  0
 12 13  1  0  0  0  0
 12 40  1  0  0  0  0
 13 28  2  0  0  0  0
 14 13  1  6  0  0  0
 14 15  1  0  0  0  0
 14 21  1  0  0  0  0
 14 26  1  0  0  0  0
 15 16  2  0  0  0  0
 15 20  1  0  0  0  0
 16 17  1  0  0  0  0
 16 41  1  0  0  0  0
 17 18  2  0  0  0  0
 17 42  1  0  0  0  0
 18 19  1  0  0  0  0
 18 43  1  0  0  0  0
 19 20  2  0  0  0  0
 19 44  1  0  0  0  0
 20 45  1  0  0  0  0
 21 22  1  0  0  0  0
 21 46  1  0  0  0  0
 22 23  1  1  0  0  0
 22 24  1  0  0  0  0
 23 47  1  0  0  0  0
 23 53  1  0  0  0  0
 24 25  1  0  0  0  0
 24 26  1  0  0  0  0
 25 48  1  0  0  0  0
 25 49  1  0  0  0  0
 25 50  1  0  0  0  0
 26 27  2  0  0  0  0
 28 51  1  0  0  0  0
 29 52  1  0  0  0  0
M  CHG  1  21   1
M  END
