../datasets/input/BACE/poses/24/ligand.pdb
 OpenBabel02191913393D

 42 45  0  0  1  0  0  0  0  0999 V2000
   11.7880   -2.3630    1.0750 C   0  0  0  0  0  0  0  0  0  0  0  0
   13.1410   -2.6520    0.5830 N   0  0  0  0  0  0  0  0  0  0  0  0
   14.2740   -2.5820    1.2970 C   0  0  1  0  0  0  0  0  0  0  0  0
   14.3740   -2.3180    2.6050 N   0  0  0  0  0  0  0  0  0  0  0  0
   15.3420   -2.8320    0.5430 N   0  3  0  0  0  0  0  0  0  0  0  0
   15.0050   -3.1470   -0.8380 C   0  0  1  0  0  0  0  0  0  0  0  0
   15.5490   -2.0800   -1.8070 C   0  0  0  0  0  0  0  0  0  0  0  0
   16.1590   -2.4450   -3.0300 C   0  0  0  0  0  0  0  0  0  0  0  0
   16.5920   -1.4580   -3.9270 C   0  0  0  0  0  0  0  0  0  0  0  0
   16.4000   -0.1000   -3.6280 C   0  0  0  0  0  0  0  0  0  0  0  0
   15.8190    0.3100   -2.4090 C   0  0  0  0  0  0  0  0  0  0  0  0
   15.5970    1.7480   -2.1180 C   0  0  0  0  0  0  0  0  0  0  0  0
   15.3880    2.6890   -3.1520 C   0  0  0  0  0  0  0  0  0  0  0  0
   15.1190    3.9950   -2.9530 N   0  0  0  0  0  0  0  0  0  0  0  0
   15.0500    4.4400   -1.6850 C   0  0  0  0  0  0  0  0  0  0  0  0
   15.2750    3.6150   -0.5720 C   0  0  0  0  0  0  0  0  0  0  0  0
   15.1920    4.2580    1.0280 Cl  0  0  0  0  0  0  0  0  0  0  0  0
   15.5590    2.2560   -0.8000 C   0  0  0  0  0  0  0  0  0  0  0  0
   15.4170   -0.7000   -1.5020 C   0  0  0  0  0  0  0  0  0  0  0  0
   15.5680   -4.5520   -1.1180 C   0  0  0  0  0  0  0  0  0  0  0  0
   14.9250   -5.8310   -0.6180 C   0  0  0  0  0  0  0  0  0  0  0  0
   14.9660   -5.5370   -2.0970 C   0  0  0  0  0  0  0  0  0  0  0  0
   13.4680   -3.0280   -0.7570 C   0  0  0  0  0  0  0  0  0  0  0  0
   12.6390   -3.1790   -1.6590 O   0  0  0  0  0  0  0  0  0  0  0  0
   11.0230   -2.8010    0.4330 H   0  0  0  0  0  0  0  0  0  0  0  0
   11.6520   -2.7550    2.0830 H   0  0  0  0  0  0  0  0  0  0  0  0
   11.6340   -1.2850    1.1020 H   0  0  0  0  0  0  0  0  0  0  0  0
   13.5960   -2.0540    3.2060 H   0  0  0  0  0  0  0  0  0  0  0  0
   16.3080   -2.8170    0.8780 H   0  0  0  0  0  0  0  0  0  0  0  0
   16.2990   -3.4770   -3.3190 H   0  0  0  0  0  0  0  0  0  0  0  0
   17.0550   -1.7420   -4.8630 H   0  0  0  0  0  0  0  0  0  0  0  0
   16.7060    0.6260   -4.3650 H   0  0  0  0  0  0  0  0  0  0  0  0
   15.3930    2.3810   -4.1860 H   0  0  0  0  0  0  0  0  0  0  0  0
   14.8130    5.4860   -1.5540 H   0  0  0  0  0  0  0  0  0  0  0  0
   15.7500    1.6090    0.0380 H   0  0  0  0  0  0  0  0  0  0  0  0
   14.9480   -0.4100   -0.5740 H   0  0  0  0  0  0  0  0  0  0  0  0
   16.6550   -4.5610   -1.0760 H   0  0  0  0  0  0  0  0  0  0  0  0
   15.5870   -6.6130   -0.2500 H   0  0  0  0  0  0  0  0  0  0  0  0
   13.9550   -5.7810   -0.1270 H   0  0  0  0  0  0  0  0  0  0  0  0
   14.0220   -5.2920   -2.5700 H   0  0  0  0  0  0  0  0  0  0  0  0
   15.6530   -6.1160   -2.7130 H   0  0  0  0  0  0  0  0  0  0  0  0
   15.2970   -2.3100    3.0400 H   0  0  0  0  0  0  0  0  0  0  0  0
  1  2  1  0  0  0  0
  1 25  1  0  0  0  0
  1 26  1  0  0  0  0
  1 27  1  0  0  0  0
  2  3  1  0  0  0  0
  2 23  1  0  0  0  0
  3  4  1  1  0  0  0
  3  5  1  0  0  0  0
  4 28  1  0  0  0  0
  4 42  1  0  0  0  0
  5  6  1  0  0  0  0
  5 29  1  0  0  0  0
  6  7  1  6  0  0  0
  6 20  1  0  0  0  0
  6 23  1  0  0  0  0
  7  8  2  0  0  0  0
  7 19  1  0  0  0  0
  8  9  1  0  0  0  0
  8 30  1  0  0  0  0
  9 10  2  0  0  0  0
  9 31  1  0  0  0  0
 10 11  1  0  0  0  0
 10 32  1  0  0  0  0
 11 12  1  0  0  0  0
 11 19  2  0  0  0  0
 12 13  2  0  0  0  0
 12 18  1  0  0  0  0
 13 14  1  0  0  0  0
 13 33  1  0  0  0  0
 14 15  2  0  0  0  0
 15 16  1  0  0  0  0
 15 34  1  0  0  0  0
 16 17  1  0  0  0  0
 16 18  2  0  0  0  0
 18 35  1  0  0  0  0
 19 36  1  0  0  0  0
 20 21  1  0  0  0  0
 20 22  1  0  0  0  0
 20 37  1  0  0  0  0
 21 22  1  0  0  0  0
 21 38  1  0  0  0  0
 21 39  1  0  0  0  0
 22 40  1  0  0  0  0
 22 41  1  0  0  0  0
 23 24  2  0  0  0  0
M  CHG  1   5   1
M  END
