@<TRIPOS>MOLECULE
../datasets/input/BACE/poses/01/ligand.pdb
 49 52 0 0 0
SMALL
GASTEIGER

@<TRIPOS>ATOM
      1  C         11.8160   -1.9870    1.1350 C.3     0  UNK0        0.0103
      2  N         13.0890   -2.4270    0.5570 N.am    0  UNK0       -0.2332
      3  C         14.2590   -2.5970    1.1960 C.3     0  UNK0        0.2305
      4  N         14.4700   -2.4090    2.5070 N.3     0  UNK0       -0.2608
      5  N         15.2260   -2.9960    0.3600 N.4     0  UNK0        0.3786
      6  C         14.7420   -3.1090   -1.0220 C.3     0  UNK0        0.1283
      7  C         15.3910   -2.0430   -1.9330 C.ar    0  UNK0        0.0148
      8  C         15.9760   -2.3790   -3.1780 C.ar    0  UNK0       -0.0524
      9  C         16.4920   -1.3790   -4.0130 C.ar    0  UNK0       -0.0607
     10  C         16.3750   -0.0270   -3.6530 C.ar    0  UNK0       -0.0540
     11  C         15.8020    0.3580   -2.4240 C.ar    0  UNK0       -0.0174
     12  C         15.5990    1.7920   -2.0990 C.ar    0  UNK0       -0.0165
     13  C         15.3380    2.7310   -3.1260 C.ar    0  UNK0       -0.0539
     14  C         15.0420    4.0760   -2.8330 C.ar    0  UNK0       -0.0598
     15  C         15.0160    4.5160   -1.5000 C.ar    0  UNK0       -0.0434
     16  C         15.3140    3.6150   -0.4660 C.ar    0  UNK0        0.0416
     17 Cl         15.3090    4.1770    1.1650 Cl      0  UNK0       -0.0835
     18  C         15.6020    2.2680   -0.7660 C.ar    0  UNK0       -0.0357
     19  C         15.3590   -0.6710   -1.5580 C.ar    0  UNK0       -0.0447
     20  C         14.8190   -4.5910   -1.5370 C.3     0  UNK0        0.0197
     21  C         16.1990   -5.2610   -1.5320 C.3     0  UNK0       -0.0439
     22  C         15.9160   -6.7440   -1.7750 C.3     0  UNK0       -0.0526
     23  C         14.5200   -7.0040   -1.1990 C.3     0  UNK0       -0.0526
     24  C         13.9600   -5.6350   -0.7930 C.3     0  UNK0       -0.0439
     25  C         13.2680   -2.7200   -0.8250 C.2     0  UNK0        0.2788
     26  O         12.3710   -2.6830   -1.6740 O.2     0  UNK0       -0.2684
     27  H         11.7130   -0.9110    1.0000 H       0  UNK0        0.0431
     28  H         10.9700   -2.4710    0.6460 H       0  UNK0        0.0431
     29  H         11.7670   -2.2190    2.1980 H       0  UNK0        0.0431
     30  H         13.7670   -2.0580    3.1560 H       0  UNK0        0.1257
     31  H         16.2090   -3.0730    0.6180 H       0  UNK0        0.2427
     32  H         16.0310   -3.3900   -3.5470 H       0  UNK0        0.0622
     33  H         16.9450   -1.6510   -4.9560 H       0  UNK0        0.0618
     34  H         16.7180    0.7190   -4.3520 H       0  UNK0        0.0624
     35  H         15.3100    2.4110   -4.1570 H       0  UNK0        0.0624
     36  H         14.8050    4.7700   -3.6260 H       0  UNK0        0.0618
     37  H         14.7670    5.5420   -1.2680 H       0  UNK0        0.0632
     38  H         15.8210    1.5920    0.0440 H       0  UNK0        0.0638
     39  H         14.9090   -0.3860   -0.6190 H       0  UNK0        0.0628
     40  H         14.4540   -4.6000   -2.5660 H       0  UNK0        0.0368
     41  H         16.8690   -4.8720   -2.2910 H       0  UNK0        0.0270
     42  H         16.6840   -5.1340   -0.5620 H       0  UNK0        0.0270
     43  H         15.9010   -6.9410   -2.8480 H       0  UNK0        0.0265
     44  H         16.6780   -7.3840   -1.3290 H       0  UNK0        0.0265
     45  H         13.8880   -7.4730   -1.9550 H       0  UNK0        0.0265
     46  H         14.5570   -7.6810   -0.3440 H       0  UNK0        0.0265
     47  H         14.0660   -5.5160    0.2870 H       0  UNK0        0.0270
     48  H         12.8980   -5.5580   -1.0320 H       0  UNK0        0.0270
     49  H         15.4200   -2.4960    2.8750 H       0  UNK0        0.1257
@<TRIPOS>BOND
     1     1     2    1
     2     1    27    1
     3     1    28    1
     4     1    29    1
     5     2     3    1
     6     2    25   am
     7     3     4    1
     8     3     5    1
     9     4    30    1
    10     4    49    1
    11     5     6    1
    12     5    31    1
    13     6     7    1
    14     6    20    1
    15     6    25    1
    16     7     8   ar
    17     7    19   ar
    18     8     9   ar
    19     8    32    1
    20     9    10   ar
    21     9    33    1
    22    10    11   ar
    23    10    34    1
    24    11    12    1
    25    11    19   ar
    26    12    13   ar
    27    12    18   ar
    28    13    14   ar
    29    13    35    1
    30    14    15   ar
    31    14    36    1
    32    15    16   ar
    33    15    37    1
    34    16    17    1
    35    16    18   ar
    36    18    38    1
    37    19    39    1
    38    20    21    1
    39    20    24    1
    40    20    40    1
    41    21    22    1
    42    21    41    1
    43    21    42    1
    44    22    23    1
    45    22    43    1
    46    22    44    1
    47    23    24    1
    48    23    45    1
    49    23    46    1
    50    24    47    1
    51    24    48    1
    52    25    26    2
