../datasets/input/BACE/poses/15/ligand.pdb
 OpenBabel02191913393D

 42 45  0  0  1  0  0  0  0  0999 V2000
   11.7980   -2.3770    1.0760 C   0  0  0  0  0  0  0  0  0  0  0  0
   13.1460   -2.6840    0.5800 N   0  0  0  0  0  0  0  0  0  0  0  0
   14.2820   -2.6160    1.2890 C   0  0  1  0  0  0  0  0  0  0  0  0
   14.3880   -2.3330    2.5930 N   0  0  0  0  0  0  0  0  0  0  0  0
   15.3450   -2.8870    0.5330 N   0  3  0  0  0  0  0  0  0  0  0  0
   15.0000   -3.2010   -0.8470 C   0  0  1  0  0  0  0  0  0  0  0  0
   15.5360   -2.1320   -1.8180 C   0  0  0  0  0  0  0  0  0  0  0  0
   16.1100   -2.4880   -3.0610 C   0  0  0  0  0  0  0  0  0  0  0  0
   16.5410   -1.4920   -3.9510 C   0  0  0  0  0  0  0  0  0  0  0  0
   16.3830   -0.1350   -3.6260 C   0  0  0  0  0  0  0  0  0  0  0  0
   15.8370    0.2630   -2.3870 C   0  0  0  0  0  0  0  0  0  0  0  0
   15.6540    1.6970   -2.0540 C   0  0  0  0  0  0  0  0  0  0  0  0
   15.2130    2.1200   -0.7820 C   0  0  0  0  0  0  0  0  0  0  0  0
   15.1200    3.4930   -0.4930 C   0  0  0  0  0  0  0  0  0  0  0  0
   15.4610    4.4150   -1.4950 C   0  0  0  0  0  0  0  0  0  0  0  0
   15.8430    4.0420   -2.7280 N   0  0  0  0  0  0  0  0  0  0  0  0
   15.9330    2.7220   -2.9850 C   0  0  0  0  0  0  0  0  0  0  0  0
   15.4330   -0.7560   -1.4910 C   0  0  0  0  0  0  0  0  0  0  0  0
   15.5630   -4.6030   -1.1360 C   0  0  0  0  0  0  0  0  0  0  0  0
   14.9340   -5.8830   -0.6200 C   0  0  0  0  0  0  0  0  0  0  0  0
   14.9470   -5.5940   -2.1010 C   0  0  0  0  0  0  0  0  0  0  0  0
   13.4640   -3.0780   -0.7580 C   0  0  0  0  0  0  0  0  0  0  0  0
   12.6270   -3.2370   -1.6520 O   0  0  0  0  0  0  0  0  0  0  0  0
   11.6610   -1.2960    1.1110 H   0  0  0  0  0  0  0  0  0  0  0  0
   11.0250   -2.7980    0.4320 H   0  0  0  0  0  0  0  0  0  0  0  0
   11.6580   -2.7730    2.0820 H   0  0  0  0  0  0  0  0  0  0  0  0
   13.6130   -2.0580    3.1930 H   0  0  0  0  0  0  0  0  0  0  0  0
   16.3120   -2.8620    0.8620 H   0  0  0  0  0  0  0  0  0  0  0  0
   16.2240   -3.5180   -3.3680 H   0  0  0  0  0  0  0  0  0  0  0  0
   16.9790   -1.7690   -4.9000 H   0  0  0  0  0  0  0  0  0  0  0  0
   16.6910    0.6000   -4.3530 H   0  0  0  0  0  0  0  0  0  0  0  0
   14.9810    1.4010   -0.0100 H   0  0  0  0  0  0  0  0  0  0  0  0
   14.8170    3.8390    0.4830 H   0  0  0  0  0  0  0  0  0  0  0  0
   15.4210    5.4770   -1.3020 H   0  0  0  0  0  0  0  0  0  0  0  0
   16.2300    2.4770   -3.9890 H   0  0  0  0  0  0  0  0  0  0  0  0
   14.9900   -0.4730   -0.5470 H   0  0  0  0  0  0  0  0  0  0  0  0
   16.6500   -4.6080   -1.1160 H   0  0  0  0  0  0  0  0  0  0  0  0
   13.9730   -5.8330   -0.1110 H   0  0  0  0  0  0  0  0  0  0  0  0
   15.6050   -6.6610   -0.2610 H   0  0  0  0  0  0  0  0  0  0  0  0
   13.9930   -5.3550   -2.5560 H   0  0  0  0  0  0  0  0  0  0  0  0
   15.6240   -6.1730   -2.7270 H   0  0  0  0  0  0  0  0  0  0  0  0
   15.3140   -2.3230    3.0230 H   0  0  0  0  0  0  0  0  0  0  0  0
  1  2  1  0  0  0  0
  1 24  1  0  0  0  0
  1 25  1  0  0  0  0
  1 26  1  0  0  0  0
  2  3  1  0  0  0  0
  2 22  1  0  0  0  0
  3  4  1  1  0  0  0
  3  5  1  0  0  0  0
  4 27  1  0  0  0  0
  4 42  1  0  0  0  0
  5  6  1  0  0  0  0
  5 28  1  0  0  0  0
  6  7  1  6  0  0  0
  6 19  1  0  0  0  0
  6 22  1  0  0  0  0
  7  8  2  0  0  0  0
  7 18  1  0  0  0  0
  8  9  1  0  0  0  0
  8 29  1  0  0  0  0
  9 10  2  0  0  0  0
  9 30  1  0  0  0  0
 10 11  1  0  0  0  0
 10 31  1  0  0  0  0
 11 12  1  0  0  0  0
 11 18  2  0  0  0  0
 12 13  2  0  0  0  0
 12 17  1  0  0  0  0
 13 14  1  0  0  0  0
 13 32  1  0  0  0  0
 14 15  2  0  0  0  0
 14 33  1  0  0  0  0
 15 16  1  0  0  0  0
 15 34  1  0  0  0  0
 16 17  2  0  0  0  0
 17 35  1  0  0  0  0
 18 36  1  0  0  0  0
 19 20  1  0  0  0  0
 19 21  1  0  0  0  0
 19 37  1  0  0  0  0
 20 21  1  0  0  0  0
 20 38  1  0  0  0  0
 20 39  1  0  0  0  0
 21 40  1  0  0  0  0
 21 41  1  0  0  0  0
 22 23  2  0  0  0  0
M  CHG  1   5   1
M  END
