@<TRIPOS>MOLECULE
../datasets/input/BACE/poses/15/ligand.pdb
 42 45 0 0 0
SMALL
GASTEIGER

@<TRIPOS>ATOM
      1  C         11.7980   -2.3770    1.0760 C.3     0  UNK0        0.0103
      2  N         13.1460   -2.6840    0.5800 N.am    0  UNK0       -0.2332
      3  C         14.2820   -2.6160    1.2890 C.3     0  UNK0        0.2305
      4  N         14.3880   -2.3330    2.5930 N.3     0  UNK0       -0.2608
      5  N         15.3450   -2.8870    0.5330 N.4     0  UNK0        0.3786
      6  C         15.0000   -3.2010   -0.8470 C.3     0  UNK0        0.1283
      7  C         15.5360   -2.1320   -1.8180 C.ar    0  UNK0        0.0148
      8  C         16.1100   -2.4880   -3.0610 C.ar    0  UNK0       -0.0524
      9  C         16.5410   -1.4920   -3.9510 C.ar    0  UNK0       -0.0607
     10  C         16.3830   -0.1350   -3.6260 C.ar    0  UNK0       -0.0540
     11  C         15.8370    0.2630   -2.3870 C.ar    0  UNK0       -0.0160
     12  C         15.6540    1.6970   -2.0540 C.ar    0  UNK0        0.0002
     13  C         15.2130    2.1200   -0.7820 C.ar    0  UNK0       -0.0512
     14  C         15.1200    3.4930   -0.4930 C.ar    0  UNK0       -0.0430
     15  C         15.4610    4.4150   -1.4950 C.ar    0  UNK0        0.0276
     16  N         15.8430    4.0420   -2.7280 N.ar    0  UNK0       -0.2627
     17  C         15.9330    2.7220   -2.9850 C.ar    0  UNK0        0.0352
     18  C         15.4330   -0.7560   -1.4910 C.ar    0  UNK0       -0.0446
     19  C         15.5630   -4.6030   -1.1360 C.3     0  UNK0        0.0197
     20  C         14.9340   -5.8830   -0.6200 C.3     0  UNK0       -0.0435
     21  C         14.9470   -5.5940   -2.1010 C.3     0  UNK0       -0.0435
     22  C         13.4640   -3.0780   -0.7580 C.2     0  UNK0        0.2788
     23  O         12.6270   -3.2370   -1.6520 O.2     0  UNK0       -0.2684
     24  H         11.6610   -1.2960    1.1110 H       0  UNK0        0.0431
     25  H         11.0250   -2.7980    0.4320 H       0  UNK0        0.0431
     26  H         11.6580   -2.7730    2.0820 H       0  UNK0        0.0431
     27  H         13.6130   -2.0580    3.1930 H       0  UNK0        0.1257
     28  H         16.3120   -2.8620    0.8620 H       0  UNK0        0.2427
     29  H         16.2240   -3.5180   -3.3680 H       0  UNK0        0.0622
     30  H         16.9790   -1.7690   -4.9000 H       0  UNK0        0.0618
     31  H         16.6910    0.6000   -4.3530 H       0  UNK0        0.0624
     32  H         14.9810    1.4010   -0.0100 H       0  UNK0        0.0625
     33  H         14.8170    3.8390    0.4830 H       0  UNK0        0.0633
     34  H         15.4210    5.4770   -1.3020 H       0  UNK0        0.0829
     35  H         16.2300    2.4770   -3.9890 H       0  UNK0        0.0836
     36  H         14.9900   -0.4730   -0.5470 H       0  UNK0        0.0629
     37  H         16.6500   -4.6080   -1.1160 H       0  UNK0        0.0368
     38  H         13.9730   -5.8330   -0.1110 H       0  UNK0        0.0270
     39  H         15.6050   -6.6610   -0.2610 H       0  UNK0        0.0270
     40  H         13.9930   -5.3550   -2.5560 H       0  UNK0        0.0270
     41  H         15.6240   -6.1730   -2.7270 H       0  UNK0        0.0270
     42  H         15.3140   -2.3230    3.0230 H       0  UNK0        0.1257
@<TRIPOS>BOND
     1     1     2    1
     2     1    24    1
     3     1    25    1
     4     1    26    1
     5     2     3    1
     6     2    22   am
     7     3     4    1
     8     3     5    1
     9     4    27    1
    10     4    42    1
    11     5     6    1
    12     5    28    1
    13     6     7    1
    14     6    19    1
    15     6    22    1
    16     7     8   ar
    17     7    18   ar
    18     8     9   ar
    19     8    29    1
    20     9    10   ar
    21     9    30    1
    22    10    11   ar
    23    10    31    1
    24    11    12    1
    25    11    18   ar
    26    12    13   ar
    27    12    17   ar
    28    13    14   ar
    29    13    32    1
    30    14    15   ar
    31    14    33    1
    32    15    16   ar
    33    15    34    1
    34    16    17   ar
    35    17    35    1
    36    18    36    1
    37    19    20    1
    38    19    21    1
    39    19    37    1
    40    20    21    1
    41    20    38    1
    42    20    39    1
    43    21    40    1
    44    21    41    1
    45    22    23    2
