@<TRIPOS>MOLECULE
../datasets/input/BACE/poses/39/ligand.pdb
 46 49 0 0 0
SMALL
GASTEIGER

@<TRIPOS>ATOM
      1  C         11.7150   -2.1700    1.1860 C.3     1  LIG1        0.0103
      2  N         13.0470   -2.4710    0.6540 N.am    1  LIG1       -0.2329
      3  C         14.2070   -2.4900    1.3300 C.3     1  LIG1        0.2310
      4  N         14.3600   -2.2950    2.6440 N.3     1  LIG1       -0.2608
      5  N         15.2420   -2.7550    0.5320 N.4     1  LIG1        0.3817
      6  C         14.8170   -3.0610   -0.8290 C.3     1  LIG1        0.1513
      7  C         15.0770   -4.5790   -1.0200 C.ar    1  LIG1        0.0187
      8  C         14.2710   -5.5610   -0.3780 C.ar    1  LIG1       -0.0521
      9  C         14.5690   -6.9360   -0.4680 C.ar    1  LIG1       -0.0613
     10  C         15.6910   -7.3650   -1.1930 C.ar    1  LIG1       -0.0617
     11  C         16.5200   -6.4110   -1.8040 C.ar    1  LIG1       -0.0613
     12  C         16.2190   -5.0420   -1.7030 C.ar    1  LIG1       -0.0521
     13  C         15.3780   -2.0330   -1.8470 C.ar    1  LIG1        0.0193
     14  C         15.7360   -2.3800   -3.1720 C.ar    1  LIG1       -0.0520
     15  C         16.2340   -1.4070   -4.0510 C.ar    1  LIG1       -0.0607
     16  C         16.2510   -0.0550   -3.6770 C.ar    1  LIG1       -0.0540
     17  C         15.7990    0.3580   -2.4050 C.ar    1  LIG1       -0.0174
     18  C         15.6220    1.8000   -2.0870 C.ar    1  LIG1       -0.0165
     19  C         15.3730    2.7530   -3.1060 C.ar    1  LIG1       -0.0539
     20  C         15.0850    4.0530   -2.8900 C.ar    1  LIG1       -0.0598
     21  C         15.0310    4.4850   -1.6170 C.ar    1  LIG1       -0.0434
     22  C         15.2980    3.6530   -0.5190 C.ar    1  LIG1        0.0416
     23 CL         15.2310    4.2780    1.0890 Cl      1  LIG1       -0.0835
     24  C         15.6050    2.3010   -0.7650 C.ar    1  LIG1       -0.0357
     25  C         15.4330   -0.6570   -1.4880 C.ar    1  LIG1       -0.0443
     26  C         13.3070   -2.7860   -0.7110 C.2     1  LIG1        0.2833
     27  O         12.4450   -2.8370   -1.5960 O.2     1  LIG1       -0.2680
     28  H         11.5250   -1.1040    1.0830 H       1  LIG1        0.0431
     29  H         10.9390   -2.7030    0.6370 H       1  LIG1        0.0431
     30  H         11.6390   -2.4490    2.2400 H       1  LIG1        0.0431
     31  H         15.2990   -2.3280    3.0410 H       1  LIG1        0.1257
     32  H         16.2150   -2.8170    0.8300 H       1  LIG1        0.2432
     33  H         13.4190   -5.2900    0.2240 H       1  LIG1        0.0623
     34  H         13.9460   -7.6600    0.0350 H       1  LIG1        0.0618
     35  H         15.9300   -8.4170   -1.2500 H       1  LIG1        0.0618
     36  H         17.4130   -6.7100   -2.3270 H       1  LIG1        0.0618
     37  H         16.9000   -4.3390   -2.1390 H       1  LIG1        0.0623
     38  H         15.6490   -3.3890   -3.5500 H       1  LIG1        0.0623
     39  H         16.5690   -1.6940   -5.0380 H       1  LIG1        0.0618
     40  H         16.5830    0.6670   -4.4090 H       1  LIG1        0.0624
     41  H         15.3360    2.4540   -4.1430 H       1  LIG1        0.0624
     42  H         14.7750    5.5230   -1.4710 H       1  LIG1        0.0632
     43  H         15.8110    1.6510    0.0680 H       1  LIG1        0.0638
     44  H         15.0960   -0.3620   -0.5080 H       1  LIG1        0.0629
     45  H         13.6150   -2.0120    3.2790 H       1  LIG1        0.1257
     46  H         14.8980    4.6730   -3.6520 H       1  LIG1        0.0618
@<TRIPOS>BOND
     1     1     2    1
     2     1    28    1
     3     1    29    1
     4     1    30    1
     5     2     3    1
     6     2    26   am
     7     3     4    1
     8     3     5    1
     9     4    31    1
    10     4    45    1
    11     5     6    1
    12     5    32    1
    13     6     7    1
    14     6    13    1
    15     6    26    1
    16     7     8   ar
    17     7    12   ar
    18     8     9   ar
    19     8    33    1
    20     9    10   ar
    21     9    34    1
    22    10    11   ar
    23    10    35    1
    24    11    12   ar
    25    11    36    1
    26    12    37    1
    27    13    14   ar
    28    13    25   ar
    29    14    15   ar
    30    14    38    1
    31    15    16   ar
    32    15    39    1
    33    16    17   ar
    34    16    40    1
    35    17    18    1
    36    17    25   ar
    37    18    19   ar
    38    18    24   ar
    39    19    20   ar
    40    19    41    1
    41    20    21   ar
    42    20    46    1
    43    21    22   ar
    44    21    42    1
    45    22    23    1
    46    22    24   ar
    47    24    43    1
    48    25    44    1
    49    26    27    2
