../datasets/input/BACE/poses/39/ligand.pdb
 OpenBabel02191913393D

 46 49  0  0  1  0  0  0  0  0999 V2000
   11.7150   -2.1700    1.1860 C   0  0  0  0  0  0  0  0  0  0  0  0
   13.0470   -2.4710    0.6540 N   0  0  0  0  0  0  0  0  0  0  0  0
   14.2070   -2.4900    1.3300 C   0  0  1  0  0  0  0  0  0  0  0  0
   14.3600   -2.2950    2.6440 N   0  0  0  0  0  0  0  0  0  0  0  0
   15.2420   -2.7550    0.5320 N   0  3  0  0  0  0  0  0  0  0  0  0
   14.8170   -3.0610   -0.8290 C   0  0  2  0  0  0  0  0  0  0  0  0
   15.0770   -4.5790   -1.0200 C   0  0  0  0  0  0  0  0  0  0  0  0
   14.2710   -5.5610   -0.3780 C   0  0  0  0  0  0  0  0  0  0  0  0
   14.5690   -6.9360   -0.4680 C   0  0  0  0  0  0  0  0  0  0  0  0
   15.6910   -7.3650   -1.1930 C   0  0  0  0  0  0  0  0  0  0  0  0
   16.5200   -6.4110   -1.8040 C   0  0  0  0  0  0  0  0  0  0  0  0
   16.2190   -5.0420   -1.7030 C   0  0  0  0  0  0  0  0  0  0  0  0
   15.3780   -2.0330   -1.8470 C   0  0  0  0  0  0  0  0  0  0  0  0
   15.7360   -2.3800   -3.1720 C   0  0  0  0  0  0  0  0  0  0  0  0
   16.2340   -1.4070   -4.0510 C   0  0  0  0  0  0  0  0  0  0  0  0
   16.2510   -0.0550   -3.6770 C   0  0  0  0  0  0  0  0  0  0  0  0
   15.7990    0.3580   -2.4050 C   0  0  0  0  0  0  0  0  0  0  0  0
   15.6220    1.8000   -2.0870 C   0  0  0  0  0  0  0  0  0  0  0  0
   15.3730    2.7530   -3.1060 C   0  0  0  0  0  0  0  0  0  0  0  0
   15.0850    4.0530   -2.8900 C   0  0  0  0  0  0  0  0  0  0  0  0
   15.0310    4.4850   -1.6170 C   0  0  0  0  0  0  0  0  0  0  0  0
   15.2980    3.6530   -0.5190 C   0  0  0  0  0  0  0  0  0  0  0  0
   15.2310    4.2780    1.0890 Cl  0  0  0  0  0  0  0  0  0  0  0  0
   15.6050    2.3010   -0.7650 C   0  0  0  0  0  0  0  0  0  0  0  0
   15.4330   -0.6570   -1.4880 C   0  0  0  0  0  0  0  0  0  0  0  0
   13.3070   -2.7860   -0.7110 C   0  0  0  0  0  0  0  0  0  0  0  0
   12.4450   -2.8370   -1.5960 O   0  0  0  0  0  0  0  0  0  0  0  0
   11.5250   -1.1040    1.0830 H   0  0  0  0  0  0  0  0  0  0  0  0
   10.9390   -2.7030    0.6370 H   0  0  0  0  0  0  0  0  0  0  0  0
   11.6390   -2.4490    2.2400 H   0  0  0  0  0  0  0  0  0  0  0  0
   15.2990   -2.3280    3.0410 H   0  0  0  0  0  0  0  0  0  0  0  0
   16.2150   -2.8170    0.8300 H   0  0  0  0  0  0  0  0  0  0  0  0
   13.4190   -5.2900    0.2240 H   0  0  0  0  0  0  0  0  0  0  0  0
   13.9460   -7.6600    0.0350 H   0  0  0  0  0  0  0  0  0  0  0  0
   15.9300   -8.4170   -1.2500 H   0  0  0  0  0  0  0  0  0  0  0  0
   17.4130   -6.7100   -2.3270 H   0  0  0  0  0  0  0  0  0  0  0  0
   16.9000   -4.3390   -2.1390 H   0  0  0  0  0  0  0  0  0  0  0  0
   15.6490   -3.3890   -3.5500 H   0  0  0  0  0  0  0  0  0  0  0  0
   16.5690   -1.6940   -5.0380 H   0  0  0  0  0  0  0  0  0  0  0  0
   16.5830    0.6670   -4.4090 H   0  0  0  0  0  0  0  0  0  0  0  0
   15.3360    2.4540   -4.1430 H   0  0  0  0  0  0  0  0  0  0  0  0
   14.7750    5.5230   -1.4710 H   0  0  0  0  0  0  0  0  0  0  0  0
   15.8110    1.6510    0.0680 H   0  0  0  0  0  0  0  0  0  0  0  0
   15.0960   -0.3620   -0.5080 H   0  0  0  0  0  0  0  0  0  0  0  0
   13.6150   -2.0120    3.2790 H   0  0  0  0  0  0  0  0  0  0  0  0
   14.8980    4.6730   -3.6520 H   0  0  0  0  0  0  0  0  0  0  0  0
  1  2  1  0  0  0  0
  1 28  1  0  0  0  0
  1 29  1  0  0  0  0
  1 30  1  0  0  0  0
  2  3  1  0  0  0  0
  2 26  1  0  0  0  0
  3  4  1  1  0  0  0
  3  5  1  0  0  0  0
  4 31  1  0  0  0  0
  4 45  1  0  0  0  0
  5  6  1  0  0  0  0
  5 32  1  0  0  0  0
  6  7  1  6  0  0  0
  6 13  1  0  0  0  0
  6 26  1  0  0  0  0
  7  8  2  0  0  0  0
  7 12  1  0  0  0  0
  8  9  1  0  0  0  0
  8 33  1  0  0  0  0
  9 10  2  0  0  0  0
  9 34  1  0  0  0  0
 10 11  1  0  0  0  0
 10 35  1  0  0  0  0
 11 12  2  0  0  0  0
 11 36  1  0  0  0  0
 12 37  1  0  0  0  0
 13 14  2  0  0  0  0
 13 25  1  0  0  0  0
 14 15  1  0  0  0  0
 14 38  1  0  0  0  0
 15 16  2  0  0  0  0
 15 39  1  0  0  0  0
 16 17  1  0  0  0  0
 16 40  1  0  0  0  0
 17 18  1  0  0  0  0
 17 25  2  0  0  0  0
 18 19  2  0  0  0  0
 18 24  1  0  0  0  0
 19 20  1  0  0  0  0
 19 41  1  0  0  0  0
 20 21  2  0  0  0  0
 20 46  1  0  0  0  0
 21 22  1  0  0  0  0
 21 42  1  0  0  0  0
 22 23  1  0  0  0  0
 22 24  2  0  0  0  0
 24 43  1  0  0  0  0
 25 44  1  0  0  0  0
 26 27  2  0  0  0  0
M  CHG  1   5   1
M  END
