../datasets/input/BACE/poses/35/ligand.pdb
 OpenBabel02191913393D

 45 48  0  0  1  0  0  0  0  0999 V2000
   11.6800   -2.2510    1.3710 C   0  0  0  0  0  0  0  0  0  0  0  0
   12.9870   -2.4640    0.7390 N   0  0  0  0  0  0  0  0  0  0  0  0
   14.1850   -2.5410    1.3430 C   0  0  1  0  0  0  0  0  0  0  0  0
   14.4080   -2.4160    2.6560 N   0  0  0  0  0  0  0  0  0  0  0  0
   15.1680   -2.7720    0.4650 N   0  3  0  0  0  0  0  0  0  0  0  0
   14.6500   -2.9660   -0.8910 C   0  0  2  0  0  0  0  0  0  0  0  0
   14.8470   -4.4550   -1.2490 C   0  0  0  0  0  0  0  0  0  0  0  0
   13.8640   -5.4580   -1.0220 C   0  0  0  0  0  0  0  0  0  0  0  0
   14.1120   -6.8050   -1.3510 C   0  0  0  0  0  0  0  0  0  0  0  0
   15.3440   -7.1710   -1.9160 C   0  0  0  0  0  0  0  0  0  0  0  0
   16.3460   -6.2030   -2.0970 C   0  0  0  0  0  0  0  0  0  0  0  0
   16.1030   -4.8700   -1.7350 C   0  0  0  0  0  0  0  0  0  0  0  0
   15.2190   -1.9230   -1.8830 C   0  0  0  0  0  0  0  0  0  0  0  0
   15.5980   -2.2560   -3.2070 C   0  0  0  0  0  0  0  0  0  0  0  0
   16.1190   -1.2730   -4.0620 C   0  0  0  0  0  0  0  0  0  0  0  0
   16.1730    0.0730   -3.6560 C   0  0  0  0  0  0  0  0  0  0  0  0
   15.7350    0.4620   -2.3710 C   0  0  0  0  0  0  0  0  0  0  0  0
   15.6380    1.8960   -1.9850 C   0  0  0  0  0  0  0  0  0  0  0  0
   15.6690    2.3240   -0.6450 C   0  0  0  0  0  0  0  0  0  0  0  0
   15.3940    3.6640   -0.3350 C   0  0  0  0  0  0  0  0  0  0  0  0
   15.0980    4.5440   -1.3840 C   0  0  0  0  0  0  0  0  0  0  0  0
   15.1360    4.0510   -2.6960 C   0  0  0  0  0  0  0  0  0  0  0  0
   15.4020    2.7640   -2.9930 N   0  0  0  0  0  0  0  0  0  0  0  0
   15.3180   -0.5640   -1.4870 C   0  0  0  0  0  0  0  0  0  0  0  0
   13.1640   -2.6420   -0.6620 C   0  0  0  0  0  0  0  0  0  0  0  0
   12.2500   -2.5950   -1.4960 O   0  0  0  0  0  0  0  0  0  0  0  0
   11.7440   -2.3620    2.4530 H   0  0  0  0  0  0  0  0  0  0  0  0
   11.3120   -1.2540    1.1300 H   0  0  0  0  0  0  0  0  0  0  0  0
   10.9550   -2.9810    1.0090 H   0  0  0  0  0  0  0  0  0  0  0  0
   15.3670   -2.4680    3.0040 H   0  0  0  0  0  0  0  0  0  0  0  0
   16.1550   -2.8600    0.7040 H   0  0  0  0  0  0  0  0  0  0  0  0
   12.9020   -5.2400   -0.5860 H   0  0  0  0  0  0  0  0  0  0  0  0
   13.3540   -7.5590   -1.1780 H   0  0  0  0  0  0  0  0  0  0  0  0
   15.5210   -8.1950   -2.1990 H   0  0  0  0  0  0  0  0  0  0  0  0
   17.3020   -6.4670   -2.5160 H   0  0  0  0  0  0  0  0  0  0  0  0
   16.8780   -4.1350   -1.8690 H   0  0  0  0  0  0  0  0  0  0  0  0
   15.5200   -3.2610   -3.5990 H   0  0  0  0  0  0  0  0  0  0  0  0
   16.4500   -1.5560   -5.0470 H   0  0  0  0  0  0  0  0  0  0  0  0
   16.5220    0.8210   -4.3560 H   0  0  0  0  0  0  0  0  0  0  0  0
   15.8680    1.6240    0.1450 H   0  0  0  0  0  0  0  0  0  0  0  0
   15.3940    4.0060    0.6890 H   0  0  0  0  0  0  0  0  0  0  0  0
   14.8560    5.5800   -1.1860 H   0  0  0  0  0  0  0  0  0  0  0  0
   14.9280    4.7140   -3.5250 H   0  0  0  0  0  0  0  0  0  0  0  0
   14.9880   -0.2830   -0.5000 H   0  0  0  0  0  0  0  0  0  0  0  0
   13.7000   -2.1130    3.3230 H   0  0  0  0  0  0  0  0  0  0  0  0
  1  2  1  0  0  0  0
  1 27  1  0  0  0  0
  1 28  1  0  0  0  0
  1 29  1  0  0  0  0
  2  3  1  0  0  0  0
  2 25  1  0  0  0  0
  3  4  1  1  0  0  0
  3  5  1  0  0  0  0
  4 30  1  0  0  0  0
  4 45  1  0  0  0  0
  5  6  1  0  0  0  0
  5 31  1  0  0  0  0
  6  7  1  6  0  0  0
  6 13  1  0  0  0  0
  6 25  1  0  0  0  0
  7  8  2  0  0  0  0
  7 12  1  0  0  0  0
  8  9  1  0  0  0  0
  8 32  1  0  0  0  0
  9 10  2  0  0  0  0
  9 33  1  0  0  0  0
 10 11  1  0  0  0  0
 10 34  1  0  0  0  0
 11 12  2  0  0  0  0
 11 35  1  0  0  0  0
 12 36  1  0  0  0  0
 13 14  2  0  0  0  0
 13 24  1  0  0  0  0
 14 15  1  0  0  0  0
 14 37  1  0  0  0  0
 15 16  2  0  0  0  0
 15 38  1  0  0  0  0
 16 17  1  0  0  0  0
 16 39  1  0  0  0  0
 17 18  1  0  0  0  0
 17 24  2  0  0  0  0
 18 19  2  0  0  0  0
 18 23  1  0  0  0  0
 19 20  1  0  0  0  0
 19 40  1  0  0  0  0
 20 21  2  0  0  0  0
 20 41  1  0  0  0  0
 21 22  1  0  0  0  0
 21 42  1  0  0  0  0
 22 23  2  0  0  0  0
 22 43  1  0  0  0  0
 24 44  1  0  0  0  0
 25 26  2  0  0  0  0
M  CHG  1   5   1
M  END
