@<TRIPOS>MOLECULE
../datasets/input/BACE/poses/35/ligand.pdb
 45 48 0 0 0
SMALL
GASTEIGER

@<TRIPOS>ATOM
      1  C         11.6800   -2.2510    1.3710 C.3     0  UNK0        0.0103
      2  N         12.9870   -2.4640    0.7390 N.am    0  UNK0       -0.2329
      3  C         14.1850   -2.5410    1.3430 C.3     0  UNK0        0.2310
      4  N         14.4080   -2.4160    2.6560 N.3     0  UNK0       -0.2608
      5  N         15.1680   -2.7720    0.4650 N.4     0  UNK0        0.3817
      6  C         14.6500   -2.9660   -0.8910 C.3     0  UNK0        0.1513
      7  C         14.8470   -4.4550   -1.2490 C.ar    0  UNK0        0.0187
      8  C         13.8640   -5.4580   -1.0220 C.ar    0  UNK0       -0.0521
      9  C         14.1120   -6.8050   -1.3510 C.ar    0  UNK0       -0.0613
     10  C         15.3440   -7.1710   -1.9160 C.ar    0  UNK0       -0.0617
     11  C         16.3460   -6.2030   -2.0970 C.ar    0  UNK0       -0.0613
     12  C         16.1030   -4.8700   -1.7350 C.ar    0  UNK0       -0.0521
     13  C         15.2190   -1.9230   -1.8830 C.ar    0  UNK0        0.0193
     14  C         15.5980   -2.2560   -3.2070 C.ar    0  UNK0       -0.0520
     15  C         16.1190   -1.2730   -4.0620 C.ar    0  UNK0       -0.0607
     16  C         16.1730    0.0730   -3.6560 C.ar    0  UNK0       -0.0525
     17  C         15.7350    0.4620   -2.3710 C.ar    0  UNK0        0.0008
     18  C         15.6380    1.8960   -1.9850 C.ar    0  UNK0        0.0710
     19  C         15.6690    2.3240   -0.6450 C.ar    0  UNK0       -0.0357
     20  C         15.3940    3.6640   -0.3350 C.ar    0  UNK0       -0.0583
     21  C         15.0980    4.5440   -1.3840 C.ar    0  UNK0       -0.0436
     22  C         15.1360    4.0510   -2.6960 C.ar    0  UNK0        0.0283
     23  N         15.4020    2.7640   -2.9930 N.ar    0  UNK0       -0.2550
     24  C         15.3180   -0.5640   -1.4870 C.ar    0  UNK0       -0.0429
     25  C         13.1640   -2.6420   -0.6620 C.2     0  UNK0        0.2833
     26  O         12.2500   -2.5950   -1.4960 O.2     0  UNK0       -0.2680
     27  H         11.7440   -2.3620    2.4530 H       0  UNK0        0.0431
     28  H         11.3120   -1.2540    1.1300 H       0  UNK0        0.0431
     29  H         10.9550   -2.9810    1.0090 H       0  UNK0        0.0431
     30  H         15.3670   -2.4680    3.0040 H       0  UNK0        0.1257
     31  H         16.1550   -2.8600    0.7040 H       0  UNK0        0.2432
     32  H         12.9020   -5.2400   -0.5860 H       0  UNK0        0.0623
     33  H         13.3540   -7.5590   -1.1780 H       0  UNK0        0.0618
     34  H         15.5210   -8.1950   -2.1990 H       0  UNK0        0.0618
     35  H         17.3020   -6.4670   -2.5160 H       0  UNK0        0.0618
     36  H         16.8780   -4.1350   -1.8690 H       0  UNK0        0.0623
     37  H         15.5200   -3.2610   -3.5990 H       0  UNK0        0.0623
     38  H         16.4500   -1.5560   -5.0470 H       0  UNK0        0.0618
     39  H         16.5220    0.8210   -4.3560 H       0  UNK0        0.0624
     40  H         15.8680    1.6240    0.1450 H       0  UNK0        0.0639
     41  H         15.3940    4.0060    0.6890 H       0  UNK0        0.0619
     42  H         14.8560    5.5800   -1.1860 H       0  UNK0        0.0633
     43  H         14.9280    4.7140   -3.5250 H       0  UNK0        0.0830
     44  H         14.9880   -0.2830   -0.5000 H       0  UNK0        0.0629
     45  H         13.7000   -2.1130    3.3230 H       0  UNK0        0.1257
@<TRIPOS>BOND
     1     1     2    1
     2     1    27    1
     3     1    28    1
     4     1    29    1
     5     2     3    1
     6     2    25   am
     7     3     4    1
     8     3     5    1
     9     4    30    1
    10     4    45    1
    11     5     6    1
    12     5    31    1
    13     6     7    1
    14     6    13    1
    15     6    25    1
    16     7     8   ar
    17     7    12   ar
    18     8     9   ar
    19     8    32    1
    20     9    10   ar
    21     9    33    1
    22    10    11   ar
    23    10    34    1
    24    11    12   ar
    25    11    35    1
    26    12    36    1
    27    13    14   ar
    28    13    24   ar
    29    14    15   ar
    30    14    37    1
    31    15    16   ar
    32    15    38    1
    33    16    17   ar
    34    16    39    1
    35    17    18    1
    36    17    24   ar
    37    18    19   ar
    38    18    23   ar
    39    19    20   ar
    40    19    40    1
    41    20    21   ar
    42    20    41    1
    43    21    22   ar
    44    21    42    1
    45    22    23   ar
    46    22    43    1
    47    24    44    1
    48    25    26    2
