@<TRIPOS>MOLECULE
../fesetup/poses/13/ligand.pdb
 43 46 0 0 0
SMALL
GASTEIGER

@<TRIPOS>ATOM
      1  C         11.7870   -2.3690    1.0810 C.3     0  UNK0        0.0103
      2  N         13.1390   -2.6650    0.5890 N.am    0  UNK0       -0.2332
      3  C         14.2720   -2.5930    1.3030 C.3     0  UNK0        0.2305
      4  N         14.3730   -2.3190    2.6080 N.3     0  UNK0       -0.2608
      5  N         15.3400   -2.8500    0.5490 N.4     0  UNK0        0.3786
      6  C         15.0020   -3.1740   -0.8290 C.3     0  UNK0        0.1283
      7  C         15.5500   -2.1170   -1.8050 C.ar    0  UNK0        0.0148
      8  C         16.1750   -2.4940   -3.0180 C.ar    0  UNK0       -0.0524
      9  C         16.6120   -1.5160   -3.9230 C.ar    0  UNK0       -0.0607
     10  C         16.4090   -0.1560   -3.6430 C.ar    0  UNK0       -0.0540
     11  C         15.8120    0.2670   -2.4360 C.ar    0  UNK0       -0.0159
     12  C         15.5760    1.7080   -2.1750 C.ar    0  UNK0        0.0015
     13  C         15.3710    2.6230   -3.2330 C.ar    0  UNK0        0.0353
     14  N         15.0910    3.9310   -3.0640 N.ar    0  UNK0       -0.2614
     15  C         15.0100    4.4070   -1.8090 C.ar    0  UNK0        0.0449
     16  C         15.2270    3.6080   -0.6780 C.ar    0  UNK0        0.0704
     17  C         15.1480    4.1900    0.6470 C.1     0  UNK0        0.1007
     18  N         15.0880    4.6560    1.7030 N.1     0  UNK0       -0.1908
     19  C         15.5210    2.2440   -0.8680 C.ar    0  UNK0       -0.0337
     20  C         15.4070   -0.7330   -1.5200 C.ar    0  UNK0       -0.0446
     21  C         15.5580   -4.5840   -1.0990 C.3     0  UNK0        0.0197
     22  C         14.8990   -5.8590   -0.6070 C.3     0  UNK0       -0.0435
     23  C         14.9620   -5.5650   -2.0860 C.3     0  UNK0       -0.0435
     24  C         13.4650   -3.0500   -0.7490 C.2     0  UNK0        0.2788
     25  O         12.6340   -3.2040   -1.6490 O.2     0  UNK0       -0.2684
     26  H         11.6500   -2.7580    2.0900 H       0  UNK0        0.0431
     27  H         11.6360   -1.2910    1.1050 H       0  UNK0        0.0431
     28  H         11.0200   -2.8060    0.4400 H       0  UNK0        0.0431
     29  H         13.5960   -2.0530    3.2090 H       0  UNK0        0.1257
     30  H         16.3060   -2.8320    0.8840 H       0  UNK0        0.2427
     31  H         16.3240   -3.5280   -3.2920 H       0  UNK0        0.0622
     32  H         17.0860   -1.8070   -4.8500 H       0  UNK0        0.0618
     33  H         16.7170    0.5620   -4.3860 H       0  UNK0        0.0624
     34  H         15.3880    2.2930   -4.2600 H       0  UNK0        0.0836
     35  H         14.7670    5.4560   -1.7110 H       0  UNK0        0.0842
     36  H         15.7080    1.6130   -0.0150 H       0  UNK0        0.0637
     37  H         14.9270   -0.4330   -0.6000 H       0  UNK0        0.0629
     38  H         16.6440   -4.6020   -1.0410 H       0  UNK0        0.0368
     39  H         15.5490   -6.6460   -0.2310 H       0  UNK0        0.0270
     40  H         13.9220   -5.8030   -0.1310 H       0  UNK0        0.0270
     41  H         14.0280   -5.3110   -2.5720 H       0  UNK0        0.0270
     42  H         15.6530   -6.1500   -2.6920 H       0  UNK0        0.0270
     43  H         15.2970   -2.3100    3.0420 H       0  UNK0        0.1257
@<TRIPOS>BOND
     1     1     2    1
     2     1    26    1
     3     1    27    1
     4     1    28    1
     5     2     3    1
     6     2    24   am
     7     3     4    1
     8     3     5    1
     9     4    29    1
    10     4    43    1
    11     5     6    1
    12     5    30    1
    13     6     7    1
    14     6    21    1
    15     6    24    1
    16     7     8   ar
    17     7    20   ar
    18     8     9   ar
    19     8    31    1
    20     9    10   ar
    21     9    32    1
    22    10    11   ar
    23    10    33    1
    24    11    12    1
    25    11    20   ar
    26    12    13   ar
    27    12    19   ar
    28    13    14   ar
    29    13    34    1
    30    14    15   ar
    31    15    16   ar
    32    15    35    1
    33    16    17    1
    34    16    19   ar
    35    17    18    3
    36    19    36    1
    37    20    37    1
    38    21    22    1
    39    21    23    1
    40    21    38    1
    41    22    23    1
    42    22    39    1
    43    22    40    1
    44    23    41    1
    45    23    42    1
    46    24    25    2
