../datasets/input/BACE/poses/07/ligand.pdb
 OpenBabel02191913393D

 45 48  0  0  1  0  0  0  0  0999 V2000
   11.7090   -2.3260    1.2760 C   0  0  0  0  0  0  0  0  0  0  0  0
   13.0270   -2.6680    0.7260 N   0  0  0  0  0  0  0  0  0  0  0  0
   14.2000   -2.6360    1.3740 C   0  0  1  0  0  0  0  0  0  0  0  0
   14.3830   -2.3570    2.6670 N   0  0  0  0  0  0  0  0  0  0  0  0
   15.2170   -2.9290    0.5650 N   0  3  0  0  0  0  0  0  0  0  0  0
   14.7840   -3.2710   -0.7920 C   0  0  2  0  0  0  0  0  0  0  0  0
   15.1330   -4.7530   -1.0670 C   0  0  0  0  0  0  0  0  0  0  0  0
   14.2840   -5.6420   -1.7690 C   0  0  0  0  0  0  0  0  0  0  0  0
   14.6390   -6.9950   -1.9470 C   0  0  0  0  0  0  0  0  0  0  0  0
   15.8630   -7.4750   -1.4530 C   0  0  0  0  0  0  0  0  0  0  0  0
   16.7340   -6.6010   -0.7900 C   0  0  0  0  0  0  0  0  0  0  0  0
   16.3580   -5.2630   -0.5890 C   0  0  0  0  0  0  0  0  0  0  0  0
   15.3570   -2.2700   -1.8110 C   0  0  0  0  0  0  0  0  0  0  0  0
   15.9110   -2.6870   -3.0440 C   0  0  0  0  0  0  0  0  0  0  0  0
   16.3920   -1.7310   -3.9570 C   0  0  0  0  0  0  0  0  0  0  0  0
   16.3150   -0.3580   -3.6590 C   0  0  0  0  0  0  0  0  0  0  0  0
   15.7900    0.0950   -2.4310 C   0  0  0  0  0  0  0  0  0  0  0  0
   15.7050    1.5400   -2.1090 C   0  0  0  0  0  0  0  0  0  0  0  0
   15.6970    1.9910   -0.7750 C   0  0  0  0  0  0  0  0  0  0  0  0
   15.5590    3.3570   -0.4900 C   0  0  0  0  0  0  0  0  0  0  0  0
   15.4370    4.2920   -1.4440 N   0  0  0  0  0  0  0  0  0  0  0  0
   15.4670    3.8810   -2.7240 C   0  0  0  0  0  0  0  0  0  0  0  0
   15.5980    2.5330   -3.1040 C   0  0  0  0  0  0  0  0  0  0  0  0
   15.3230   -0.8820   -1.5210 C   0  0  0  0  0  0  0  0  0  0  0  0
   13.2650   -3.0330   -0.6330 C   0  0  0  0  0  0  0  0  0  0  0  0
   12.3820   -3.0980   -1.4960 O   0  0  0  0  0  0  0  0  0  0  0  0
   11.5210   -1.2620    1.1330 H   0  0  0  0  0  0  0  0  0  0  0  0
   10.9140   -2.8800    0.7770 H   0  0  0  0  0  0  0  0  0  0  0  0
   11.6580   -2.5490    2.3410 H   0  0  0  0  0  0  0  0  0  0  0  0
   15.3300   -2.3610    3.0510 H   0  0  0  0  0  0  0  0  0  0  0  0
   16.1980   -2.9240    0.8450 H   0  0  0  0  0  0  0  0  0  0  0  0
   13.3390   -5.3140   -2.1640 H   0  0  0  0  0  0  0  0  0  0  0  0
   13.9700   -7.6690   -2.4610 H   0  0  0  0  0  0  0  0  0  0  0  0
   16.1380   -8.5090   -1.5610 H   0  0  0  0  0  0  0  0  0  0  0  0
   17.6820   -6.9560   -0.4100 H   0  0  0  0  0  0  0  0  0  0  0  0
   17.0250   -4.6270   -0.0350 H   0  0  0  0  0  0  0  0  0  0  0  0
   15.9760   -3.7330   -3.3120 H   0  0  0  0  0  0  0  0  0  0  0  0
   16.8180   -2.0430   -4.9000 H   0  0  0  0  0  0  0  0  0  0  0  0
   16.6700    0.3520   -4.3890 H   0  0  0  0  0  0  0  0  0  0  0  0
   15.8060    1.3010    0.0420 H   0  0  0  0  0  0  0  0  0  0  0  0
   15.5470    3.7070    0.5320 H   0  0  0  0  0  0  0  0  0  0  0  0
   15.3630    4.6610   -3.4620 H   0  0  0  0  0  0  0  0  0  0  0  0
   15.5840    2.2730   -4.1520 H   0  0  0  0  0  0  0  0  0  0  0  0
   14.8940   -0.5490   -0.5890 H   0  0  0  0  0  0  0  0  0  0  0  0
   13.6450   -2.0630    3.3050 H   0  0  0  0  0  0  0  0  0  0  0  0
  1  2  1  0  0  0  0
  1 27  1  0  0  0  0
  1 28  1  0  0  0  0
  1 29  1  0  0  0  0
  2  3  1  0  0  0  0
  2 25  1  0  0  0  0
  3  4  1  1  0  0  0
  3  5  1  0  0  0  0
  4 30  1  0  0  0  0
  4 45  1  0  0  0  0
  5  6  1  0  0  0  0
  5 31  1  0  0  0  0
  6  7  1  6  0  0  0
  6 13  1  0  0  0  0
  6 25  1  0  0  0  0
  7  8  2  0  0  0  0
  7 12  1  0  0  0  0
  8  9  1  0  0  0  0
  8 32  1  0  0  0  0
  9 10  2  0  0  0  0
  9 33  1  0  0  0  0
 10 11  1  0  0  0  0
 10 34  1  0  0  0  0
 11 12  2  0  0  0  0
 11 35  1  0  0  0  0
 12 36  1  0  0  0  0
 13 14  2  0  0  0  0
 13 24  1  0  0  0  0
 14 15  1  0  0  0  0
 14 37  1  0  0  0  0
 15 16  2  0  0  0  0
 15 38  1  0  0  0  0
 16 17  1  0  0  0  0
 16 39  1  0  0  0  0
 17 18  1  0  0  0  0
 17 24  2  0  0  0  0
 18 19  2  0  0  0  0
 18 23  1  0  0  0  0
 19 20  1  0  0  0  0
 19 40  1  0  0  0  0
 20 21  2  0  0  0  0
 20 41  1  0  0  0  0
 21 22  1  0  0  0  0
 22 23  2  0  0  0  0
 22 42  1  0  0  0  0
 23 43  1  0  0  0  0
 24 44  1  0  0  0  0
 25 26  2  0  0  0  0
M  CHG  1   5   1
M  END
