@<TRIPOS>MOLECULE
../fesetup/poses/30/ligand.pdb
 46 49 0 0 0
SMALL
GASTEIGER

@<TRIPOS>ATOM
      1  C         11.6950   -2.1440    1.3060 C.3     0  UNK0        0.0103
      2  N         13.0020   -2.3990    0.7000 N.am    0  UNK0       -0.2329
      3  C         14.1920   -2.4860    1.3200 C.3     0  UNK0        0.2310
      4  N         14.4010   -2.3560    2.6350 N.3     0  UNK0       -0.2608
      5  N         15.1810   -2.7370    0.4600 N.4     0  UNK0        0.3817
      6  C         14.6760   -2.9530   -0.8940 C.3     0  UNK0        0.1513
      7  C         14.8450   -4.4630   -1.1960 C.ar    0  UNK0        0.0187
      8  C         16.0870   -4.9310   -1.6680 C.ar    0  UNK0       -0.0521
      9  C         16.3080   -6.2910   -1.9320 C.ar    0  UNK0       -0.0613
     10  C         15.3010   -7.2310   -1.6610 C.ar    0  UNK0       -0.0617
     11  C         14.0780   -6.8050   -1.1180 C.ar    0  UNK0       -0.0613
     12  C         13.8520   -5.4360   -0.8930 C.ar    0  UNK0       -0.0521
     13  C         15.2710   -1.9270   -1.8910 C.ar    0  UNK0        0.0193
     14  C         15.7220   -2.2890   -3.1820 C.ar    0  UNK0       -0.0520
     15  C         16.2630   -1.3220   -4.0410 C.ar    0  UNK0       -0.0607
     16  C         16.2450    0.0370   -3.6850 C.ar    0  UNK0       -0.0540
     17  C         15.7220    0.4600   -2.4440 C.ar    0  UNK0       -0.0159
     18  C         15.5140    1.8980   -2.1460 C.ar    0  UNK0        0.0015
     19  C         15.2250    2.8240   -3.1770 C.ar    0  UNK0        0.0353
     20  N         14.9110    4.1190   -2.9760 N.ar    0  UNK0       -0.2614
     21  C         14.8690    4.5740   -1.7090 C.ar    0  UNK0        0.0449
     22  C         15.1720    3.7660   -0.6030 C.ar    0  UNK0        0.0704
     23  C         15.1260    4.3200    0.7380 C.1     0  UNK0        0.1007
     24  N         15.0920    4.7640    1.8040 N.1     0  UNK0       -0.1908
     25  C         15.5070    2.4170   -0.8300 C.ar    0  UNK0       -0.0337
     26  C         15.3080   -0.5490   -1.5400 C.ar    0  UNK0       -0.0443
     27  C         13.1930   -2.6020   -0.6950 C.2     0  UNK0        0.2833
     28  O         12.2930   -2.5480   -1.5430 O.2     0  UNK0       -0.2680
     29  H         11.3750   -1.1300    1.0630 H       0  UNK0        0.0431
     30  H         10.9510   -2.8410    0.9210 H       0  UNK0        0.0431
     31  H         11.7360   -2.2650    2.3860 H       0  UNK0        0.0431
     32  H         15.3520   -2.4190    2.9990 H       0  UNK0        0.1257
     33  H         16.1640   -2.8380    0.7120 H       0  UNK0        0.2432
     34  H         16.8740   -4.2220   -1.8420 H       0  UNK0        0.0623
     35  H         17.2610   -6.6010   -2.3270 H       0  UNK0        0.0618
     36  H         15.4670   -8.2800   -1.8380 H       0  UNK0        0.0618
     37  H         13.3210   -7.5360   -0.8630 H       0  UNK0        0.0618
     38  H         12.9010   -5.1790   -0.4580 H       0  UNK0        0.0623
     39  H         15.6770   -3.3050   -3.5440 H       0  UNK0        0.0623
     40  H         16.6580   -1.6220   -5.0020 H       0  UNK0        0.0618
     41  H         16.6030    0.7570   -4.4050 H       0  UNK0        0.0624
     42  H         15.1800    2.5040   -4.2060 H       0  UNK0        0.0836
     43  H         14.5900    5.6110   -1.5790 H       0  UNK0        0.0842
     44  H         15.7410    1.7790    0.0070 H       0  UNK0        0.0637
     45  H         14.9210   -0.2490   -0.5790 H       0  UNK0        0.0629
     46  H         13.6860   -2.0580    3.2950 H       0  UNK0        0.1257
@<TRIPOS>BOND
     1     1     2    1
     2     1    29    1
     3     1    30    1
     4     1    31    1
     5     2     3    1
     6     2    27   am
     7     3     4    1
     8     3     5    1
     9     4    32    1
    10     4    46    1
    11     5     6    1
    12     5    33    1
    13     6     7    1
    14     6    13    1
    15     6    27    1
    16     7     8   ar
    17     7    12   ar
    18     8     9   ar
    19     8    34    1
    20     9    10   ar
    21     9    35    1
    22    10    11   ar
    23    10    36    1
    24    11    12   ar
    25    11    37    1
    26    12    38    1
    27    13    14   ar
    28    13    26   ar
    29    14    15   ar
    30    14    39    1
    31    15    16   ar
    32    15    40    1
    33    16    17   ar
    34    16    41    1
    35    17    18    1
    36    17    26   ar
    37    18    19   ar
    38    18    25   ar
    39    19    20   ar
    40    19    42    1
    41    20    21   ar
    42    21    22   ar
    43    21    43    1
    44    22    23    1
    45    22    25   ar
    46    23    24    3
    47    25    44    1
    48    26    45    1
    49    27    28    2
