../datasets/input/BACE/poses/19/ligand.pdb
 OpenBabel02191913393D

 45 48  0  0  1  0  0  0  0  0999 V2000
   15.2930    4.2920    1.0150 C   0  0  0  0  0  0  0  0  0  0  0  0
   15.2620    3.7480   -0.4000 C   0  0  0  0  0  0  0  0  0  0  0  0
   14.9080    4.5740   -1.4750 C   0  0  0  0  0  0  0  0  0  0  0  0
   14.8940    4.1490   -2.7540 N   0  0  0  0  0  0  0  0  0  0  0  0
   15.2060    2.8610   -2.9970 C   0  0  0  0  0  0  0  0  0  0  0  0
   15.5300    1.9160   -2.0030 C   0  0  0  0  0  0  0  0  0  0  0  0
   15.7500    0.4840   -2.3450 C   0  0  0  0  0  0  0  0  0  0  0  0
   16.2880    0.1100   -3.5960 C   0  0  0  0  0  0  0  0  0  0  0  0
   16.4390   -1.2420   -3.9410 C   0  0  0  0  0  0  0  0  0  0  0  0
   15.9910   -2.2530   -3.0810 C   0  0  0  0  0  0  0  0  0  0  0  0
   15.4340   -1.9360   -1.8220 C   0  0  0  0  0  0  0  0  0  0  0  0
   14.8690   -2.9890   -0.8320 C   0  0  1  0  0  0  0  0  0  0  0  0
   15.1310   -4.5070   -0.9960 C   0  0  0  0  0  0  0  0  0  0  0  0
   14.8280   -5.2740   -2.2580 C   0  0  0  0  0  0  0  0  0  0  0  0
   16.2400   -5.2150   -1.7420 C   0  0  0  0  0  0  0  0  0  0  0  0
   15.2810   -2.6740    0.5320 N   0  3  0  0  0  0  0  0  0  0  0  0
   14.2360   -2.5140    1.3440 C   0  0  2  0  0  0  0  0  0  0  0  0
   14.3820   -2.3700    2.6650 N   0  0  0  0  0  0  0  0  0  0  0  0
   13.0740   -2.5550    0.6740 N   0  0  0  0  0  0  0  0  0  0  0  0
   11.7280   -2.4940    1.2590 C   0  0  0  0  0  0  0  0  0  0  0  0
   13.3510   -2.7950   -0.7030 C   0  0  0  0  0  0  0  0  0  0  0  0
   12.4940   -2.8960   -1.5870 O   0  0  0  0  0  0  0  0  0  0  0  0
   15.3610   -0.5580   -1.4670 C   0  0  0  0  0  0  0  0  0  0  0  0
   15.5840    2.4020   -0.6750 C   0  0  0  0  0  0  0  0  0  0  0  0
   14.4090    3.9660    1.5520 H   0  0  0  0  0  0  0  0  0  0  0  0
   16.1710    3.9450    1.5620 H   0  0  0  0  0  0  0  0  0  0  0  0
   15.3060    5.3820    1.0330 H   0  0  0  0  0  0  0  0  0  0  0  0
   14.6630    5.6160   -1.3150 H   0  0  0  0  0  0  0  0  0  0  0  0
   15.1110    2.5630   -4.0300 H   0  0  0  0  0  0  0  0  0  0  0  0
   16.5890    0.8520   -4.3190 H   0  0  0  0  0  0  0  0  0  0  0  0
   16.8750   -1.5230   -4.8870 H   0  0  0  0  0  0  0  0  0  0  0  0
   16.0870   -3.2510   -3.4660 H   0  0  0  0  0  0  0  0  0  0  0  0
   14.8190   -5.0590   -0.1090 H   0  0  0  0  0  0  0  0  0  0  0  0
   14.2620   -6.1990   -2.1470 H   0  0  0  0  0  0  0  0  0  0  0  0
   14.5940   -4.6810   -3.1260 H   0  0  0  0  0  0  0  0  0  0  0  0
   16.9420   -4.6590   -2.3400 H   0  0  0  0  0  0  0  0  0  0  0  0
   16.6560   -6.1050   -1.2660 H   0  0  0  0  0  0  0  0  0  0  0  0
   16.2570   -2.7100    0.8300 H   0  0  0  0  0  0  0  0  0  0  0  0
   13.6310   -2.1090    3.3030 H   0  0  0  0  0  0  0  0  0  0  0  0
   11.0150   -2.0180    0.5840 H   0  0  0  0  0  0  0  0  0  0  0  0
   11.3730   -3.5010    1.4850 H   0  0  0  0  0  0  0  0  0  0  0  0
   11.7560   -1.9450    2.1950 H   0  0  0  0  0  0  0  0  0  0  0  0
   14.9120   -0.3030   -0.5170 H   0  0  0  0  0  0  0  0  0  0  0  0
   15.8490    1.7410    0.1320 H   0  0  0  0  0  0  0  0  0  0  0  0
   15.3260   -2.3620    3.0530 H   0  0  0  0  0  0  0  0  0  0  0  0
  1  2  1  0  0  0  0
  1 25  1  0  0  0  0
  1 26  1  0  0  0  0
  1 27  1  0  0  0  0
  2  3  2  0  0  0  0
  2 24  1  0  0  0  0
  3  4  1  0  0  0  0
  3 28  1  0  0  0  0
  4  5  2  0  0  0  0
  5  6  1  0  0  0  0
  5 29  1  0  0  0  0
  6  7  1  0  0  0  0
  6 24  2  0  0  0  0
  7  8  2  0  0  0  0
  7 23  1  0  0  0  0
  8  9  1  0  0  0  0
  8 30  1  0  0  0  0
  9 10  2  0  0  0  0
  9 31  1  0  0  0  0
 10 11  1  0  0  0  0
 10 32  1  0  0  0  0
 11 23  2  0  0  0  0
 12 11  1  6  0  0  0
 12 13  1  0  0  0  0
 12 16  1  0  0  0  0
 12 21  1  0  0  0  0
 13 14  1  0  0  0  0
 13 15  1  0  0  0  0
 13 33  1  0  0  0  0
 14 15  1  0  0  0  0
 14 34  1  0  0  0  0
 14 35  1  0  0  0  0
 15 36  1  0  0  0  0
 15 37  1  0  0  0  0
 16 17  1  0  0  0  0
 16 38  1  0  0  0  0
 17 18  1  1  0  0  0
 17 19  1  0  0  0  0
 18 39  1  0  0  0  0
 18 45  1  0  0  0  0
 19 20  1  0  0  0  0
 19 21  1  0  0  0  0
 20 40  1  0  0  0  0
 20 41  1  0  0  0  0
 20 42  1  0  0  0  0
 21 22  2  0  0  0  0
 23 43  1  0  0  0  0
 24 44  1  0  0  0  0
M  CHG  1  16   1
M  END
