@<TRIPOS>MOLECULE
../datasets/input/BACE/poses/19/ligand.pdb
 45 48 0 0 0
SMALL
GASTEIGER

@<TRIPOS>ATOM
      1  C         15.2930    4.2920    1.0150 C.3     0  UNK0       -0.0383
      2  C         15.2620    3.7480   -0.4000 C.ar    0  UNK0       -0.0318
      3  C         14.9080    4.5740   -1.4750 C.ar    0  UNK0        0.0305
      4  N         14.8940    4.1490   -2.7540 N.ar    0  UNK0       -0.2624
      5  C         15.2060    2.8610   -2.9970 C.ar    0  UNK0        0.0353
      6  C         15.5300    1.9160   -2.0030 C.ar    0  UNK0        0.0005
      7  C         15.7500    0.4840   -2.3450 C.ar    0  UNK0       -0.0160
      8  C         16.2880    0.1100   -3.5960 C.ar    0  UNK0       -0.0540
      9  C         16.4390   -1.2420   -3.9410 C.ar    0  UNK0       -0.0607
     10  C         15.9910   -2.2530   -3.0810 C.ar    0  UNK0       -0.0524
     11  C         15.4340   -1.9360   -1.8220 C.ar    0  UNK0        0.0148
     12  C         14.8690   -2.9890   -0.8320 C.3     0  UNK0        0.1283
     13  C         15.1310   -4.5070   -0.9960 C.3     0  UNK0        0.0197
     14  C         14.8280   -5.2740   -2.2580 C.3     0  UNK0       -0.0435
     15  C         16.2400   -5.2150   -1.7420 C.3     0  UNK0       -0.0435
     16  N         15.2810   -2.6740    0.5320 N.4     0  UNK0        0.3786
     17  C         14.2360   -2.5140    1.3440 C.3     0  UNK0        0.2305
     18  N         14.3820   -2.3700    2.6650 N.3     0  UNK0       -0.2608
     19  N         13.0740   -2.5550    0.6740 N.am    0  UNK0       -0.2332
     20  C         11.7280   -2.4940    1.2590 C.3     0  UNK0        0.0103
     21  C         13.3510   -2.7950   -0.7030 C.2     0  UNK0        0.2788
     22  O         12.4940   -2.8960   -1.5870 O.2     0  UNK0       -0.2684
     23  C         15.3610   -0.5580   -1.4670 C.ar    0  UNK0       -0.0446
     24  C         15.5840    2.4020   -0.6750 C.ar    0  UNK0       -0.0482
     25  H         14.4090    3.9660    1.5520 H       0  UNK0        0.0278
     26  H         16.1710    3.9450    1.5620 H       0  UNK0        0.0278
     27  H         15.3060    5.3820    1.0330 H       0  UNK0        0.0278
     28  H         14.6630    5.6160   -1.3150 H       0  UNK0        0.0832
     29  H         15.1110    2.5630   -4.0300 H       0  UNK0        0.0836
     30  H         16.5890    0.8520   -4.3190 H       0  UNK0        0.0624
     31  H         16.8750   -1.5230   -4.8870 H       0  UNK0        0.0618
     32  H         16.0870   -3.2510   -3.4660 H       0  UNK0        0.0622
     33  H         14.8190   -5.0590   -0.1090 H       0  UNK0        0.0368
     34  H         14.2620   -6.1990   -2.1470 H       0  UNK0        0.0270
     35  H         14.5940   -4.6810   -3.1260 H       0  UNK0        0.0270
     36  H         16.9420   -4.6590   -2.3400 H       0  UNK0        0.0270
     37  H         16.6560   -6.1050   -1.2660 H       0  UNK0        0.0270
     38  H         16.2570   -2.7100    0.8300 H       0  UNK0        0.2427
     39  H         13.6310   -2.1090    3.3030 H       0  UNK0        0.1257
     40  H         11.0150   -2.0180    0.5840 H       0  UNK0        0.0431
     41  H         11.3730   -3.5010    1.4850 H       0  UNK0        0.0431
     42  H         11.7560   -1.9450    2.1950 H       0  UNK0        0.0431
     43  H         14.9120   -0.3030   -0.5170 H       0  UNK0        0.0629
     44  H         15.8490    1.7410    0.1320 H       0  UNK0        0.0627
     45  H         15.3260   -2.3620    3.0530 H       0  UNK0        0.1257
@<TRIPOS>BOND
     1     1     2    1
     2     1    25    1
     3     1    26    1
     4     1    27    1
     5     2     3   ar
     6     2    24   ar
     7     3     4   ar
     8     3    28    1
     9     4     5   ar
    10     5     6   ar
    11     5    29    1
    12     6     7    1
    13     6    24   ar
    14     7     8   ar
    15     7    23   ar
    16     8     9   ar
    17     8    30    1
    18     9    10   ar
    19     9    31    1
    20    10    11   ar
    21    10    32    1
    22    11    12    1
    23    11    23   ar
    24    12    13    1
    25    12    16    1
    26    12    21    1
    27    13    14    1
    28    13    15    1
    29    13    33    1
    30    14    15    1
    31    14    34    1
    32    14    35    1
    33    15    36    1
    34    15    37    1
    35    16    17    1
    36    16    38    1
    37    17    18    1
    38    17    19    1
    39    18    39    1
    40    18    45    1
    41    19    20    1
    42    19    21   am
    43    20    40    1
    44    20    41    1
    45    20    42    1
    46    21    22    2
    47    23    43    1
    48    24    44    1
