../datasets/input/BACE/poses/21/ligand.pdb
 OpenBabel02191913393D

 45 48  0  0  1  0  0  0  0  0999 V2000
   11.7110   -2.3100    1.2660 C   0  0  0  0  0  0  0  0  0  0  0  0
   13.0310   -2.6520    0.7230 N   0  0  0  0  0  0  0  0  0  0  0  0
   14.2010   -2.6280    1.3770 C   0  0  1  0  0  0  0  0  0  0  0  0
   14.3780   -2.3570    2.6730 N   0  0  0  0  0  0  0  0  0  0  0  0
   15.2220   -2.9200    0.5740 N   0  3  0  0  0  0  0  0  0  0  0  0
   14.7970   -3.2520   -0.7880 C   0  0  2  0  0  0  0  0  0  0  0  0
   15.1410   -4.7330   -1.0690 C   0  0  0  0  0  0  0  0  0  0  0  0
   16.3620   -5.2520   -0.5870 C   0  0  0  0  0  0  0  0  0  0  0  0
   16.7320   -6.5910   -0.7920 C   0  0  0  0  0  0  0  0  0  0  0  0
   15.8610   -7.4580   -1.4610 C   0  0  0  0  0  0  0  0  0  0  0  0
   14.6410   -6.9710   -1.9580 C   0  0  0  0  0  0  0  0  0  0  0  0
   14.2900   -5.6170   -1.7760 C   0  0  0  0  0  0  0  0  0  0  0  0
   15.3790   -2.2440   -1.7950 C   0  0  0  0  0  0  0  0  0  0  0  0
   15.9520   -2.6550   -3.0210 C   0  0  0  0  0  0  0  0  0  0  0  0
   16.4340   -1.6940   -3.9270 C   0  0  0  0  0  0  0  0  0  0  0  0
   16.3360   -0.3220   -3.6310 C   0  0  0  0  0  0  0  0  0  0  0  0
   15.7940    0.1250   -2.4070 C   0  0  0  0  0  0  0  0  0  0  0  0
   15.6710    1.5690   -2.0920 C   0  0  0  0  0  0  0  0  0  0  0  0
   15.3830    2.0350   -0.7900 C   0  0  0  0  0  0  0  0  0  0  0  0
   15.3530    3.4190   -0.5360 C   0  0  0  0  0  0  0  0  0  0  0  0
   15.5970    4.3050   -1.5950 C   0  0  0  0  0  0  0  0  0  0  0  0
   15.8280    3.8920   -2.8510 N   0  0  0  0  0  0  0  0  0  0  0  0
   15.8600    2.5640   -3.0760 C   0  0  0  0  0  0  0  0  0  0  0  0
   15.3330   -0.8570   -1.5010 C   0  0  0  0  0  0  0  0  0  0  0  0
   13.2770   -3.0090   -0.6370 C   0  0  0  0  0  0  0  0  0  0  0  0
   12.3980   -3.0670   -1.5050 O   0  0  0  0  0  0  0  0  0  0  0  0
   10.9190   -2.8650    0.7630 H   0  0  0  0  0  0  0  0  0  0  0  0
   11.6550   -2.5320    2.3310 H   0  0  0  0  0  0  0  0  0  0  0  0
   11.5240   -1.2460    1.1210 H   0  0  0  0  0  0  0  0  0  0  0  0
   15.3230   -2.3600    3.0600 H   0  0  0  0  0  0  0  0  0  0  0  0
   16.2010   -2.9160    0.8570 H   0  0  0  0  0  0  0  0  0  0  0  0
   17.0270   -4.6210   -0.0260 H   0  0  0  0  0  0  0  0  0  0  0  0
   17.6770   -6.9510   -0.4080 H   0  0  0  0  0  0  0  0  0  0  0  0
   16.1300   -8.4940   -1.5740 H   0  0  0  0  0  0  0  0  0  0  0  0
   13.9710   -7.6400   -2.4760 H   0  0  0  0  0  0  0  0  0  0  0  0
   13.3490   -5.2830   -2.1750 H   0  0  0  0  0  0  0  0  0  0  0  0
   16.0280   -3.7000   -3.2900 H   0  0  0  0  0  0  0  0  0  0  0  0
   16.8720   -2.0020   -4.8660 H   0  0  0  0  0  0  0  0  0  0  0  0
   16.6870    0.3860   -4.3650 H   0  0  0  0  0  0  0  0  0  0  0  0
   15.2240    1.3420    0.0220 H   0  0  0  0  0  0  0  0  0  0  0  0
   15.1720    3.8040    0.4550 H   0  0  0  0  0  0  0  0  0  0  0  0
   15.6060    5.3720   -1.4290 H   0  0  0  0  0  0  0  0  0  0  0  0
   16.0320    2.2850   -4.1010 H   0  0  0  0  0  0  0  0  0  0  0  0
   14.8920   -0.5360   -0.5700 H   0  0  0  0  0  0  0  0  0  0  0  0
   13.6380   -2.0620    3.3080 H   0  0  0  0  0  0  0  0  0  0  0  0
  1  2  1  0  0  0  0
  1 27  1  0  0  0  0
  1 28  1  0  0  0  0
  1 29  1  0  0  0  0
  2  3  1  0  0  0  0
  2 25  1  0  0  0  0
  3  4  1  1  0  0  0
  3  5  1  0  0  0  0
  4 30  1  0  0  0  0
  4 45  1  0  0  0  0
  5  6  1  0  0  0  0
  5 31  1  0  0  0  0
  6  7  1  6  0  0  0
  6 13  1  0  0  0  0
  6 25  1  0  0  0  0
  7  8  2  0  0  0  0
  7 12  1  0  0  0  0
  8  9  1  0  0  0  0
  8 32  1  0  0  0  0
  9 10  2  0  0  0  0
  9 33  1  0  0  0  0
 10 11  1  0  0  0  0
 10 34  1  0  0  0  0
 11 12  2  0  0  0  0
 11 35  1  0  0  0  0
 12 36  1  0  0  0  0
 13 14  2  0  0  0  0
 13 24  1  0  0  0  0
 14 15  1  0  0  0  0
 14 37  1  0  0  0  0
 15 16  2  0  0  0  0
 15 38  1  0  0  0  0
 16 17  1  0  0  0  0
 16 39  1  0  0  0  0
 17 18  1  0  0  0  0
 17 24  2  0  0  0  0
 18 19  2  0  0  0  0
 18 23  1  0  0  0  0
 19 20  1  0  0  0  0
 19 40  1  0  0  0  0
 20 21  2  0  0  0  0
 20 41  1  0  0  0  0
 21 22  1  0  0  0  0
 21 42  1  0  0  0  0
 22 23  2  0  0  0  0
 23 43  1  0  0  0  0
 24 44  1  0  0  0  0
 25 26  2  0  0  0  0
M  CHG  1   5   1
M  END
