@<TRIPOS>MOLECULE
../datasets/input/BACE/poses/21/ligand.pdb
 45 48 0 0 0
SMALL
GASTEIGER

@<TRIPOS>ATOM
      1  C         11.7110   -2.3100    1.2660 C.3     0  UNK0        0.0103
      2  N         13.0310   -2.6520    0.7230 N.am    0  UNK0       -0.2329
      3  C         14.2010   -2.6280    1.3770 C.3     0  UNK0        0.2310
      4  N         14.3780   -2.3570    2.6730 N.3     0  UNK0       -0.2608
      5  N         15.2220   -2.9200    0.5740 N.4     0  UNK0        0.3817
      6  C         14.7970   -3.2520   -0.7880 C.3     0  UNK0        0.1513
      7  C         15.1410   -4.7330   -1.0690 C.ar    0  UNK0        0.0187
      8  C         16.3620   -5.2520   -0.5870 C.ar    0  UNK0       -0.0521
      9  C         16.7320   -6.5910   -0.7920 C.ar    0  UNK0       -0.0613
     10  C         15.8610   -7.4580   -1.4610 C.ar    0  UNK0       -0.0617
     11  C         14.6410   -6.9710   -1.9580 C.ar    0  UNK0       -0.0613
     12  C         14.2900   -5.6170   -1.7760 C.ar    0  UNK0       -0.0521
     13  C         15.3790   -2.2440   -1.7950 C.ar    0  UNK0        0.0193
     14  C         15.9520   -2.6550   -3.0210 C.ar    0  UNK0       -0.0520
     15  C         16.4340   -1.6940   -3.9270 C.ar    0  UNK0       -0.0607
     16  C         16.3360   -0.3220   -3.6310 C.ar    0  UNK0       -0.0540
     17  C         15.7940    0.1250   -2.4070 C.ar    0  UNK0       -0.0160
     18  C         15.6710    1.5690   -2.0920 C.ar    0  UNK0        0.0002
     19  C         15.3830    2.0350   -0.7900 C.ar    0  UNK0       -0.0512
     20  C         15.3530    3.4190   -0.5360 C.ar    0  UNK0       -0.0430
     21  C         15.5970    4.3050   -1.5950 C.ar    0  UNK0        0.0276
     22  N         15.8280    3.8920   -2.8510 N.ar    0  UNK0       -0.2627
     23  C         15.8600    2.5640   -3.0760 C.ar    0  UNK0        0.0352
     24  C         15.3330   -0.8570   -1.5010 C.ar    0  UNK0       -0.0443
     25  C         13.2770   -3.0090   -0.6370 C.2     0  UNK0        0.2833
     26  O         12.3980   -3.0670   -1.5050 O.2     0  UNK0       -0.2680
     27  H         10.9190   -2.8650    0.7630 H       0  UNK0        0.0431
     28  H         11.6550   -2.5320    2.3310 H       0  UNK0        0.0431
     29  H         11.5240   -1.2460    1.1210 H       0  UNK0        0.0431
     30  H         15.3230   -2.3600    3.0600 H       0  UNK0        0.1257
     31  H         16.2010   -2.9160    0.8570 H       0  UNK0        0.2432
     32  H         17.0270   -4.6210   -0.0260 H       0  UNK0        0.0623
     33  H         17.6770   -6.9510   -0.4080 H       0  UNK0        0.0618
     34  H         16.1300   -8.4940   -1.5740 H       0  UNK0        0.0618
     35  H         13.9710   -7.6400   -2.4760 H       0  UNK0        0.0618
     36  H         13.3490   -5.2830   -2.1750 H       0  UNK0        0.0623
     37  H         16.0280   -3.7000   -3.2900 H       0  UNK0        0.0623
     38  H         16.8720   -2.0020   -4.8660 H       0  UNK0        0.0618
     39  H         16.6870    0.3860   -4.3650 H       0  UNK0        0.0624
     40  H         15.2240    1.3420    0.0220 H       0  UNK0        0.0625
     41  H         15.1720    3.8040    0.4550 H       0  UNK0        0.0633
     42  H         15.6060    5.3720   -1.4290 H       0  UNK0        0.0829
     43  H         16.0320    2.2850   -4.1010 H       0  UNK0        0.0836
     44  H         14.8920   -0.5360   -0.5700 H       0  UNK0        0.0629
     45  H         13.6380   -2.0620    3.3080 H       0  UNK0        0.1257
@<TRIPOS>BOND
     1     1     2    1
     2     1    27    1
     3     1    28    1
     4     1    29    1
     5     2     3    1
     6     2    25   am
     7     3     4    1
     8     3     5    1
     9     4    30    1
    10     4    45    1
    11     5     6    1
    12     5    31    1
    13     6     7    1
    14     6    13    1
    15     6    25    1
    16     7     8   ar
    17     7    12   ar
    18     8     9   ar
    19     8    32    1
    20     9    10   ar
    21     9    33    1
    22    10    11   ar
    23    10    34    1
    24    11    12   ar
    25    11    35    1
    26    12    36    1
    27    13    14   ar
    28    13    24   ar
    29    14    15   ar
    30    14    37    1
    31    15    16   ar
    32    15    38    1
    33    16    17   ar
    34    16    39    1
    35    17    18    1
    36    17    24   ar
    37    18    19   ar
    38    18    23   ar
    39    19    20   ar
    40    19    40    1
    41    20    21   ar
    42    20    41    1
    43    21    22   ar
    44    21    42    1
    45    22    23   ar
    46    23    43    1
    47    24    44    1
    48    25    26    2
