../datasets/input/BACE/poses/29/ligand.pdb
 OpenBabel02191913393D

 46 49  0  0  1  0  0  0  0  0999 V2000
   11.8370   -2.0140    1.1170 C   0  0  0  0  0  0  0  0  0  0  0  0
   13.1190   -2.4440    0.5480 N   0  0  0  0  0  0  0  0  0  0  0  0
   14.2830   -2.6030    1.1990 C   0  0  1  0  0  0  0  0  0  0  0  0
   14.4760   -2.4190    2.5140 N   0  0  0  0  0  0  0  0  0  0  0  0
   15.2650   -2.9840    0.3720 N   0  3  0  0  0  0  0  0  0  0  0  0
   14.8040   -3.0770   -1.0180 C   0  0  1  0  0  0  0  0  0  0  0  0
   15.4610   -2.0000   -1.9040 C   0  0  0  0  0  0  0  0  0  0  0  0
   16.1510   -2.3400   -3.0920 C   0  0  0  0  0  0  0  0  0  0  0  0
   16.6410   -1.3350   -3.9380 C   0  0  0  0  0  0  0  0  0  0  0  0
   16.4310    0.0170   -3.6220 C   0  0  0  0  0  0  0  0  0  0  0  0
   15.8010    0.4010   -2.4220 C   0  0  0  0  0  0  0  0  0  0  0  0
   15.5620    1.8310   -2.1120 C   0  0  0  0  0  0  0  0  0  0  0  0
   15.2810    2.7550   -3.1460 C   0  0  0  0  0  0  0  0  0  0  0  0
   14.9680    4.1000   -2.8610 C   0  0  0  0  0  0  0  0  0  0  0  0
   14.9450    4.5490   -1.5310 C   0  0  0  0  0  0  0  0  0  0  0  0
   15.2590    3.6600   -0.4910 C   0  0  0  0  0  0  0  0  0  0  0  0
   15.2530    4.2290    1.1380 Cl  0  0  0  0  0  0  0  0  0  0  0  0
   15.5640    2.3150   -0.7820 C   0  0  0  0  0  0  0  0  0  0  0  0
   15.3490   -0.6260   -1.5610 C   0  0  0  0  0  0  0  0  0  0  0  0
   14.9080   -4.5250   -1.5630 C   0  0  0  0  0  0  0  0  0  0  0  0
   16.2080   -5.3450   -1.4850 C   0  0  0  0  0  0  0  0  0  0  0  0
   15.3500   -6.6080   -1.3800 C   0  0  0  0  0  0  0  0  0  0  0  0
   14.2260   -5.7120   -0.8520 C   0  0  0  0  0  0  0  0  0  0  0  0
   13.3180   -2.7300   -0.8330 C   0  0  0  0  0  0  0  0  0  0  0  0
   12.4290   -2.7010   -1.6920 O   0  0  0  0  0  0  0  0  0  0  0  0
   10.9980   -2.4910    0.6090 H   0  0  0  0  0  0  0  0  0  0  0  0
   11.7340   -0.9360    1.0000 H   0  0  0  0  0  0  0  0  0  0  0  0
   11.7740   -2.2620    2.1760 H   0  0  0  0  0  0  0  0  0  0  0  0
   13.7630   -2.0740    3.1550 H   0  0  0  0  0  0  0  0  0  0  0  0
   16.2460   -3.0540    0.6410 H   0  0  0  0  0  0  0  0  0  0  0  0
   16.3020   -3.3620   -3.4050 H   0  0  0  0  0  0  0  0  0  0  0  0
   17.1520   -1.6040   -4.8530 H   0  0  0  0  0  0  0  0  0  0  0  0
   16.7590    0.7670   -4.3240 H   0  0  0  0  0  0  0  0  0  0  0  0
   15.2560    2.4230   -4.1740 H   0  0  0  0  0  0  0  0  0  0  0  0
   14.7190    4.7840   -3.6580 H   0  0  0  0  0  0  0  0  0  0  0  0
   14.6860    5.5740   -1.3050 H   0  0  0  0  0  0  0  0  0  0  0  0
   15.8000    1.6480    0.0300 H   0  0  0  0  0  0  0  0  0  0  0  0
   14.8420   -0.3400   -0.6510 H   0  0  0  0  0  0  0  0  0  0  0  0
   14.5530   -4.5490   -2.5960 H   0  0  0  0  0  0  0  0  0  0  0  0
   16.7850   -5.1570   -0.5770 H   0  0  0  0  0  0  0  0  0  0  0  0
   16.8340   -5.3100   -2.3760 H   0  0  0  0  0  0  0  0  0  0  0  0
   15.1200   -7.0480   -2.3540 H   0  0  0  0  0  0  0  0  0  0  0  0
   15.7160   -7.3540   -0.6740 H   0  0  0  0  0  0  0  0  0  0  0  0
   14.2340   -5.6340    0.2370 H   0  0  0  0  0  0  0  0  0  0  0  0
   13.2340   -5.9640   -1.2300 H   0  0  0  0  0  0  0  0  0  0  0  0
   15.4220   -2.4980    2.8930 H   0  0  0  0  0  0  0  0  0  0  0  0
  1  2  1  0  0  0  0
  1 26  1  0  0  0  0
  1 27  1  0  0  0  0
  1 28  1  0  0  0  0
  2  3  1  0  0  0  0
  2 24  1  0  0  0  0
  3  4  1  1  0  0  0
  3  5  1  0  0  0  0
  4 29  1  0  0  0  0
  4 46  1  0  0  0  0
  5  6  1  0  0  0  0
  5 30  1  0  0  0  0
  6  7  1  6  0  0  0
  6 20  1  0  0  0  0
  6 24  1  0  0  0  0
  7  8  2  0  0  0  0
  7 19  1  0  0  0  0
  8  9  1  0  0  0  0
  8 31  1  0  0  0  0
  9 10  2  0  0  0  0
  9 32  1  0  0  0  0
 10 11  1  0  0  0  0
 10 33  1  0  0  0  0
 11 12  1  0  0  0  0
 11 19  2  0  0  0  0
 12 13  2  0  0  0  0
 12 18  1  0  0  0  0
 13 14  1  0  0  0  0
 13 34  1  0  0  0  0
 14 15  2  0  0  0  0
 14 35  1  0  0  0  0
 15 16  1  0  0  0  0
 15 36  1  0  0  0  0
 16 17  1  0  0  0  0
 16 18  2  0  0  0  0
 18 37  1  0  0  0  0
 19 38  1  0  0  0  0
 20 21  1  0  0  0  0
 20 23  1  0  0  0  0
 20 39  1  0  0  0  0
 21 22  1  0  0  0  0
 21 40  1  0  0  0  0
 21 41  1  0  0  0  0
 22 23  1  0  0  0  0
 22 42  1  0  0  0  0
 22 43  1  0  0  0  0
 23 44  1  0  0  0  0
 23 45  1  0  0  0  0
 24 25  2  0  0  0  0
M  CHG  1   5   1
M  END
