@<TRIPOS>MOLECULE
../datasets/input/BACE/poses/26/ligand.pdb
 42 45 0 0 0
SMALL
GASTEIGER

@<TRIPOS>ATOM
      1  C         11.7980   -2.3990    1.0870 C.3     0  UNK0        0.0103
      2  N         13.1440   -2.7110    0.5890 N.am    0  UNK0       -0.2332
      3  C         14.2830   -2.6380    1.2930 C.3     0  UNK0        0.2305
      4  N         14.3920   -2.3410    2.5930 N.3     0  UNK0       -0.2608
      5  N         15.3440   -2.9150    0.5360 N.4     0  UNK0        0.3786
      6  C         14.9930   -3.2410   -0.8410 C.3     0  UNK0        0.1283
      7  C         15.5290   -2.1820   -1.8220 C.ar    0  UNK0        0.0148
      8  C         16.1090   -2.5500   -3.0600 C.ar    0  UNK0       -0.0524
      9  C         16.5420   -1.5650   -3.9600 C.ar    0  UNK0       -0.0607
     10  C         16.3800   -0.2050   -3.6510 C.ar    0  UNK0       -0.0540
     11  C         15.8270    0.2070   -2.4200 C.ar    0  UNK0       -0.0159
     12  C         15.6420    1.6450   -2.1090 C.ar    0  UNK0        0.0029
     13  C         15.4600    2.6160   -3.1210 C.ar    0  UNK0        0.0354
     14  N         15.2270    3.9240   -2.8890 N.ar    0  UNK0       -0.2598
     15  C         15.1700    4.3400   -1.6090 C.ar    0  UNK0        0.0628
     16  C         15.3730    3.4810   -0.5180 C.ar    0  UNK0        0.1420
     17  F         15.3300    3.9440    0.7540 F       0  UNK0       -0.2039
     18  C         15.6170    2.1240   -0.7820 C.ar    0  UNK0       -0.0158
     19  C         15.4210   -0.8010   -1.5130 C.ar    0  UNK0       -0.0446
     20  C         15.5510   -4.6480   -1.1200 C.3     0  UNK0        0.0197
     21  C         14.9110   -5.9230   -0.6060 C.3     0  UNK0       -0.0435
     22  C         14.9370   -5.6370   -2.0870 C.3     0  UNK0       -0.0435
     23  C         13.4580   -3.1150   -0.7470 C.2     0  UNK0        0.2788
     24  O         12.6180   -3.2760   -1.6380 O.2     0  UNK0       -0.2684
     25  H         11.6580   -2.7980    2.0920 H       0  UNK0        0.0431
     26  H         11.6670   -1.3180    1.1260 H       0  UNK0        0.0431
     27  H         11.0220   -2.8150    0.4440 H       0  UNK0        0.0431
     28  H         13.6190   -2.0640    3.1940 H       0  UNK0        0.1257
     29  H         16.3120   -2.8860    0.8620 H       0  UNK0        0.2427
     30  H         16.2270   -3.5830   -3.3540 H       0  UNK0        0.0622
     31  H         16.9850   -1.8490   -4.9040 H       0  UNK0        0.0618
     32  H         16.6900    0.5210   -4.3860 H       0  UNK0        0.0624
     33  H         15.4610    2.3330   -4.1630 H       0  UNK0        0.0836
     34  H         14.9600    5.3880   -1.4510 H       0  UNK0        0.0859
     35  H         15.7910    1.4550    0.0430 H       0  UNK0        0.0653
     36  H         14.9730   -0.5100   -0.5740 H       0  UNK0        0.0629
     37  H         16.6380   -4.6590   -1.0910 H       0  UNK0        0.0368
     38  H         15.5750   -6.7040   -0.2410 H       0  UNK0        0.0270
     39  H         13.9460   -5.8680   -0.1050 H       0  UNK0        0.0270
     40  H         13.9880   -5.3930   -2.5520 H       0  UNK0        0.0270
     41  H         15.6150   -6.2210   -2.7070 H       0  UNK0        0.0270
     42  H         15.3190   -2.3300    3.0220 H       0  UNK0        0.1257
@<TRIPOS>BOND
     1     1     2    1
     2     1    25    1
     3     1    26    1
     4     1    27    1
     5     2     3    1
     6     2    23   am
     7     3     4    1
     8     3     5    1
     9     4    28    1
    10     4    42    1
    11     5     6    1
    12     5    29    1
    13     6     7    1
    14     6    20    1
    15     6    23    1
    16     7     8   ar
    17     7    19   ar
    18     8     9   ar
    19     8    30    1
    20     9    10   ar
    21     9    31    1
    22    10    11   ar
    23    10    32    1
    24    11    12    1
    25    11    19   ar
    26    12    13   ar
    27    12    18   ar
    28    13    14   ar
    29    13    33    1
    30    14    15   ar
    31    15    16   ar
    32    15    34    1
    33    16    18   ar
    34    16    17    1
    35    18    35    1
    36    19    36    1
    37    20    21    1
    38    20    22    1
    39    20    37    1
    40    21    22    1
    41    21    38    1
    42    21    39    1
    43    22    40    1
    44    22    41    1
    45    23    24    2
