../datasets/input/BACE/poses/18/ligand.pdb
 OpenBabel02191913393D

 47 50  0  0  1  0  0  0  0  0999 V2000
   15.3150    5.5060    2.8950 C   0  0  0  0  0  0  0  0  0  0  0  0
   15.2760    4.6940    1.6710 C   0  0  0  0  0  0  0  0  0  0  0  0
   15.2920    4.0730    0.6200 C   0  0  0  0  0  0  0  0  0  0  0  0
   15.3510    3.4490   -0.6910 C   0  0  0  0  0  0  0  0  0  0  0  0
   15.1650    4.2390   -1.8340 C   0  0  0  0  0  0  0  0  0  0  0  0
   15.2380    3.7480   -3.0810 N   0  0  0  0  0  0  0  0  0  0  0  0
   15.4740    2.4310   -3.2310 C   0  0  0  0  0  0  0  0  0  0  0  0
   15.6500    1.5170   -2.1650 C   0  0  0  0  0  0  0  0  0  0  0  0
   15.8250    0.0640   -2.4270 C   0  0  0  0  0  0  0  0  0  0  0  0
   16.3440   -0.3780   -3.6610 C   0  0  0  0  0  0  0  0  0  0  0  0
   16.4140   -1.7400   -3.9770 C   0  0  0  0  0  0  0  0  0  0  0  0
   15.9410   -2.7040   -3.0750 C   0  0  0  0  0  0  0  0  0  0  0  0
   15.4460   -2.3240   -1.8040 C   0  0  0  0  0  0  0  0  0  0  0  0
   14.8510   -3.3200   -0.7680 C   0  0  1  0  0  0  0  0  0  0  0  0
   15.0820   -4.8500   -0.8610 C   0  0  0  0  0  0  0  0  0  0  0  0
   14.8180   -5.7090   -2.0750 C   0  0  0  0  0  0  0  0  0  0  0  0
   16.2250   -5.5700   -1.5440 C   0  0  0  0  0  0  0  0  0  0  0  0
   15.2670   -2.9520    0.5810 N   0  3  0  0  0  0  0  0  0  0  0  0
   14.2390   -2.5910    1.3480 C   0  0  2  0  0  0  0  0  0  0  0  0
   14.3970   -2.2860    2.6380 N   0  0  0  0  0  0  0  0  0  0  0  0
   13.0820   -2.6030    0.6690 N   0  0  0  0  0  0  0  0  0  0  0  0
   11.7630   -2.2010    1.1740 C   0  0  0  0  0  0  0  0  0  0  0  0
   13.3390   -3.0540   -0.6600 C   0  0  0  0  0  0  0  0  0  0  0  0
   12.4760   -3.1860   -1.5330 O   0  0  0  0  0  0  0  0  0  0  0  0
   15.4220   -0.9300   -1.5000 C   0  0  0  0  0  0  0  0  0  0  0  0
   15.6010    2.0710   -0.8640 C   0  0  0  0  0  0  0  0  0  0  0  0
   14.7230    6.4090    2.7700 H   0  0  0  0  0  0  0  0  0  0  0  0
   14.9100    4.9400    3.7300 H   0  0  0  0  0  0  0  0  0  0  0  0
   16.3440    5.7820    3.1250 H   0  0  0  0  0  0  0  0  0  0  0  0
   14.9640    5.2980   -1.7520 H   0  0  0  0  0  0  0  0  0  0  0  0
   15.4800    2.0980   -4.2570 H   0  0  0  0  0  0  0  0  0  0  0  0
   16.6790    0.3260   -4.4060 H   0  0  0  0  0  0  0  0  0  0  0  0
   16.8080   -2.0380   -4.9380 H   0  0  0  0  0  0  0  0  0  0  0  0
   15.9690   -3.7180   -3.4240 H   0  0  0  0  0  0  0  0  0  0  0  0
   14.7740   -5.3360    0.0640 H   0  0  0  0  0  0  0  0  0  0  0  0
   14.3150   -6.6620   -1.9190 H   0  0  0  0  0  0  0  0  0  0  0  0
   14.5670   -5.2130   -3.0010 H   0  0  0  0  0  0  0  0  0  0  0  0
   16.9320   -5.0170   -2.1450 H   0  0  0  0  0  0  0  0  0  0  0  0
   16.6530   -6.4220   -1.0200 H   0  0  0  0  0  0  0  0  0  0  0  0
   16.2430   -2.9600    0.8790 H   0  0  0  0  0  0  0  0  0  0  0  0
   13.6500   -1.9780    3.2590 H   0  0  0  0  0  0  0  0  0  0  0  0
   10.9580   -2.6950    0.6300 H   0  0  0  0  0  0  0  0  0  0  0  0
   11.6590   -2.4480    2.2300 H   0  0  0  0  0  0  0  0  0  0  0  0
   11.6440   -1.1250    1.0540 H   0  0  0  0  0  0  0  0  0  0  0  0
   15.0150   -0.6040   -0.5540 H   0  0  0  0  0  0  0  0  0  0  0  0
   15.7570    1.4440   -0.0040 H   0  0  0  0  0  0  0  0  0  0  0  0
   15.3340   -2.3090    3.0440 H   0  0  0  0  0  0  0  0  0  0  0  0
  1  2  1  0  0  0  0
  1 27  1  0  0  0  0
  1 28  1  0  0  0  0
  1 29  1  0  0  0  0
  2  3  3  0  0  0  0
  3  4  1  0  0  0  0
  4  5  2  0  0  0  0
  4 26  1  0  0  0  0
  5  6  1  0  0  0  0
  5 30  1  0  0  0  0
  6  7  2  0  0  0  0
  7  8  1  0  0  0  0
  7 31  1  0  0  0  0
  8  9  1  0  0  0  0
  8 26  2  0  0  0  0
  9 10  2  0  0  0  0
  9 25  1  0  0  0  0
 10 11  1  0  0  0  0
 10 32  1  0  0  0  0
 11 12  2  0  0  0  0
 11 33  1  0  0  0  0
 12 13  1  0  0  0  0
 12 34  1  0  0  0  0
 13 25  2  0  0  0  0
 14 13  1  6  0  0  0
 14 15  1  0  0  0  0
 14 18  1  0  0  0  0
 14 23  1  0  0  0  0
 15 16  1  0  0  0  0
 15 17  1  0  0  0  0
 15 35  1  0  0  0  0
 16 17  1  0  0  0  0
 16 36  1  0  0  0  0
 16 37  1  0  0  0  0
 17 38  1  0  0  0  0
 17 39  1  0  0  0  0
 18 19  1  0  0  0  0
 18 40  1  0  0  0  0
 19 20  1  1  0  0  0
 19 21  1  0  0  0  0
 20 41  1  0  0  0  0
 20 47  1  0  0  0  0
 21 22  1  0  0  0  0
 21 23  1  0  0  0  0
 22 42  1  0  0  0  0
 22 43  1  0  0  0  0
 22 44  1  0  0  0  0
 23 24  2  0  0  0  0
 25 45  1  0  0  0  0
 26 46  1  0  0  0  0
M  CHG  1  18   1
M  END
