@<TRIPOS>MOLECULE
../fesetup/poses/11/ligand.pdb
 45 48 0 0 0
SMALL
GASTEIGER

@<TRIPOS>ATOM
      1  C         11.7400   -2.2130    1.2310 C.3     0  UNK0        0.0103
      2  N         13.0680   -2.5560    0.7090 N.am    0  UNK0       -0.2329
      3  C         14.2260   -2.5680    1.3850 C.3     0  UNK0        0.2310
      4  N         14.3830   -2.3340    2.6890 N.3     0  UNK0       -0.2608
      5  N         15.2560   -2.8610    0.5930 N.4     0  UNK0        0.3818
      6  C         14.8530   -3.1590   -0.7800 C.3     0  UNK0        0.1528
      7  C         15.1440   -4.6470   -1.0920 C.ar    0  UNK0        0.0367
      8  C         14.2640   -5.4800   -1.8170 C.ar    0  UNK0       -0.0492
      9  C         14.5640   -6.8430   -1.9700 C.ar    0  UNK0       -0.0431
     10  C         15.7570   -7.3360   -1.4320 C.ar    0  UNK0        0.0276
     11  N         16.6210   -6.5580   -0.7670 N.ar    0  UNK0       -0.2628
     12  C         16.3170   -5.2550   -0.6050 C.ar    0  UNK0        0.0372
     13  C         15.4650   -2.1400   -1.7600 C.ar    0  UNK0        0.0193
     14  C         16.0950   -2.5440   -2.9590 C.ar    0  UNK0       -0.0520
     15  C         16.5720   -1.5780   -3.8630 C.ar    0  UNK0       -0.0607
     16  C         16.4070   -0.2070   -3.5900 C.ar    0  UNK0       -0.0540
     17  C         15.8150    0.2380   -2.3890 C.ar    0  UNK0       -0.0174
     18  C         15.6040    1.6830   -2.1190 C.ar    0  UNK0       -0.0165
     19  C         15.3470    2.5920   -3.1730 C.ar    0  UNK0       -0.0539
     20  C         15.0380    3.9440   -2.9130 C.ar    0  UNK0       -0.0598
     21  C         15.0070    4.4210   -1.5930 C.ar    0  UNK0       -0.0434
     22  C         15.3050    3.5500   -0.5350 C.ar    0  UNK0        0.0416
     23 Cl         15.2910    4.1520    1.0820 Cl      0  UNK0       -0.0835
     24  C         15.6000    2.1970   -0.7990 C.ar    0  UNK0       -0.0357
     25  C         15.3710   -0.7500   -1.4800 C.ar    0  UNK0       -0.0443
     26  C         13.3360   -2.8870   -0.6510 C.2     0  UNK0        0.2834
     27  O         12.4740   -2.9290   -1.5360 O.2     0  UNK0       -0.2680
     28  H         11.5520   -1.1510    1.0730 H       0  UNK0        0.0431
     29  H         10.9570   -2.7750    0.7220 H       0  UNK0        0.0431
     30  H         11.6700   -2.4250    2.2970 H       0  UNK0        0.0431
     31  H         15.3230   -2.3540    3.0890 H       0  UNK0        0.1257
     32  H         16.2330   -2.8550    0.8930 H       0  UNK0        0.2432
     33  H         13.3410   -5.1090   -2.2190 H       0  UNK0        0.0623
     34  H         13.8940   -7.5090   -2.4900 H       0  UNK0        0.0633
     35  H         16.0230   -8.3770   -1.5220 H       0  UNK0        0.0829
     36  H         17.0110   -4.6880   -0.0140 H       0  UNK0        0.0834
     37  H         16.2120   -3.5880   -3.2170 H       0  UNK0        0.0623
     38  H         17.0460   -1.8830   -4.7860 H       0  UNK0        0.0618
     39  H         16.7360    0.5090   -4.3260 H       0  UNK0        0.0624
     40  H         15.3300    2.2450   -4.1960 H       0  UNK0        0.0624
     41  H         14.7900    4.6180   -3.7180 H       0  UNK0        0.0618
     42  H         14.7490    5.4510   -1.3900 H       0  UNK0        0.0632
     43  H         15.8200    1.5470    0.0300 H       0  UNK0        0.0638
     44  H         14.8910   -0.4240   -0.5700 H       0  UNK0        0.0629
     45  H         13.6380   -2.0380    3.3180 H       0  UNK0        0.1257
@<TRIPOS>BOND
     1     1     2    1
     2     1    28    1
     3     1    29    1
     4     1    30    1
     5     2     3    1
     6     2    26   am
     7     3     4    1
     8     3     5    1
     9     4    31    1
    10     4    45    1
    11     5     6    1
    12     5    32    1
    13     6     7    1
    14     6    13    1
    15     6    26    1
    16     7     8   ar
    17     7    12   ar
    18     8     9   ar
    19     8    33    1
    20     9    10   ar
    21     9    34    1
    22    10    11   ar
    23    10    35    1
    24    11    12   ar
    25    12    36    1
    26    13    14   ar
    27    13    25   ar
    28    14    15   ar
    29    14    37    1
    30    15    16   ar
    31    15    38    1
    32    16    17   ar
    33    16    39    1
    34    17    18    1
    35    17    25   ar
    36    18    19   ar
    37    18    24   ar
    38    19    20   ar
    39    19    40    1
    40    20    21   ar
    41    20    41    1
    42    21    22   ar
    43    21    42    1
    44    22    23    1
    45    22    24   ar
    46    24    43    1
    47    25    44    1
    48    26    27    2
