@<TRIPOS>MOLECULE
../datasets/input/BACE/poses/02/ligand.pdb
 43 46 0 0 0
SMALL
GASTEIGER

@<TRIPOS>ATOM
      1  C         11.7860   -2.3270    1.0540 C.3     0  UNK0        0.0103
      2  N         13.1440   -2.5990    0.5660 N.am    0  UNK0       -0.2332
      3  C         14.2730   -2.5330    1.2870 C.3     0  UNK0        0.2305
      4  N         14.3650   -2.2940    2.6000 N.3     0  UNK0       -0.2608
      5  N         15.3470   -2.7620    0.5350 N.4     0  UNK0        0.3786
      6  C         15.0190   -3.0680   -0.8500 C.3     0  UNK0        0.1283
      7  C         15.5630   -1.9950   -1.8100 C.ar    0  UNK0        0.0148
      8  C         16.1890   -2.3500   -3.0280 C.ar    0  UNK0       -0.0524
      9  C         16.6160   -1.3550   -3.9200 C.ar    0  UNK0       -0.0607
     10  C         16.4010    0.0020   -3.6210 C.ar    0  UNK0       -0.0540
     11  C         15.8080    0.4000   -2.4040 C.ar    0  UNK0       -0.0174
     12  C         15.5590    1.8330   -2.1090 C.ar    0  UNK0       -0.0165
     13  C         15.2650    2.7460   -3.1490 C.ar    0  UNK0       -0.0539
     14  C         14.9440    4.0910   -2.8730 C.ar    0  UNK0       -0.0598
     15  C         14.9240    4.5520   -1.5460 C.ar    0  UNK0       -0.0434
     16  C         15.2490    3.6730   -0.5010 C.ar    0  UNK0        0.0416
     17 Cl         15.2430    4.2510    1.1250 Cl      0  UNK0       -0.0835
     18  C         15.5650    2.3290   -0.7840 C.ar    0  UNK0       -0.0357
     19  C         15.4130   -0.6170   -1.5040 C.ar    0  UNK0       -0.0447
     20  C         15.5900   -4.4690   -1.1330 C.3     0  UNK0        0.0197
     21  C         15.3460   -5.2330   -2.4200 C.3     0  UNK0       -0.0435
     22  C         16.7360   -4.7540   -2.0800 C.3     0  UNK0       -0.0435
     23  C         13.4810   -2.9580   -0.7770 C.2     0  UNK0        0.2788
     24  O         12.6570   -3.1080   -1.6840 O.2     0  UNK0       -0.2684
     25  H         11.0290   -2.7770    0.4110 H       0  UNK0        0.0431
     26  H         11.6520   -2.7180    2.0620 H       0  UNK0        0.0431
     27  H         11.6180   -1.2510    1.0770 H       0  UNK0        0.0431
     28  H         13.5840   -2.0390    3.2010 H       0  UNK0        0.1257
     29  H         16.3100   -2.7540    0.8770 H       0  UNK0        0.2427
     30  H         16.3450   -3.3790   -3.3170 H       0  UNK0        0.0622
     31  H         17.0900   -1.6330   -4.8520 H       0  UNK0        0.0618
     32  H         16.6980    0.7400   -4.3490 H       0  UNK0        0.0624
     33  H         15.2370    2.4080   -4.1740 H       0  UNK0        0.0624
     34  H         14.6860    4.7670   -3.6750 H       0  UNK0        0.0618
     35  H         14.6580    5.5770   -1.3280 H       0  UNK0        0.0632
     36  H         15.8090    1.6730    0.0350 H       0  UNK0        0.0638
     37  H         14.9320   -0.3280   -0.5820 H       0  UNK0        0.0628
     38  H         15.5720   -5.0930   -0.2430 H       0  UNK0        0.0368
     39  H         15.1570   -6.3020   -2.3390 H       0  UNK0        0.0270
     40  H         14.8360   -4.7370   -3.2440 H       0  UNK0        0.0270
     41  H         17.1290   -3.9420   -2.6800 H       0  UNK0        0.0270
     42  H         17.4700   -5.4960   -1.7710 H       0  UNK0        0.0270
     43  H         15.2860   -2.2900    3.0400 H       0  UNK0        0.1257
@<TRIPOS>BOND
     1     1     2    1
     2     1    25    1
     3     1    26    1
     4     1    27    1
     5     2     3    1
     6     2    23   am
     7     3     4    1
     8     3     5    1
     9     4    28    1
    10     4    43    1
    11     5     6    1
    12     5    29    1
    13     6     7    1
    14     6    20    1
    15     6    23    1
    16     7     8   ar
    17     7    19   ar
    18     8     9   ar
    19     8    30    1
    20     9    10   ar
    21     9    31    1
    22    10    11   ar
    23    10    32    1
    24    11    12    1
    25    11    19   ar
    26    12    13   ar
    27    12    18   ar
    28    13    14   ar
    29    13    33    1
    30    14    15   ar
    31    14    34    1
    32    15    16   ar
    33    15    35    1
    34    16    18   ar
    35    16    17    1
    36    18    36    1
    37    19    37    1
    38    20    21    1
    39    20    22    1
    40    20    38    1
    41    21    22    1
    42    21    39    1
    43    21    40    1
    44    22    41    1
    45    22    42    1
    46    23    24    2
