../datasets/input/BACE/poses/09/ligand.pdb
 OpenBabel02191913393D

 42 45  0  0  1  0  0  0  0  0999 V2000
   11.7740   -2.0620    1.1340 C   0  0  0  0  0  0  0  0  0  0  0  0
   13.0790   -2.4520    0.5880 N   0  0  0  0  0  0  0  0  0  0  0  0
   14.2430   -2.5420    1.2540 C   0  0  2  0  0  0  0  0  0  0  0  0
   14.4170   -2.3500    2.5690 N   0  0  0  0  0  0  0  0  0  0  0  0
   15.2560   -2.8530    0.4410 N   0  3  0  0  0  0  0  0  0  0  0  0
   14.8080   -3.0850   -0.9330 C   0  0  1  0  0  0  0  0  0  0  0  0
   15.4270   -2.0580   -1.9130 C   0  0  0  0  0  0  0  0  0  0  0  0
   15.8990   -2.3990   -3.2010 C   0  0  0  0  0  0  0  0  0  0  0  0
   16.3930   -1.4100   -4.0610 C   0  0  0  0  0  0  0  0  0  0  0  0
   16.3360   -0.0550   -3.6930 C   0  0  0  0  0  0  0  0  0  0  0  0
   15.8300    0.3420   -2.4380 C   0  0  0  0  0  0  0  0  0  0  0  0
   15.6350    1.7780   -2.1100 C   0  0  0  0  0  0  0  0  0  0  0  0
   15.3650    2.7170   -3.1350 C   0  0  0  0  0  0  0  0  0  0  0  0
   15.0640    4.0620   -2.8390 C   0  0  0  0  0  0  0  0  0  0  0  0
   15.0420    4.5010   -1.5070 C   0  0  0  0  0  0  0  0  0  0  0  0
   15.3460    3.6010   -0.4750 C   0  0  0  0  0  0  0  0  0  0  0  0
   15.3400    4.1600    1.1570 Cl  0  0  0  0  0  0  0  0  0  0  0  0
   15.6380    2.2540   -0.7760 C   0  0  0  0  0  0  0  0  0  0  0  0
   15.4350   -0.6820   -1.5450 C   0  0  0  0  0  0  0  0  0  0  0  0
   14.8980   -4.5910   -1.1990 C   0  0  0  0  0  0  0  0  0  0  0  0
   14.0680   -5.4770   -0.6140 N   0  0  0  0  0  0  0  0  0  0  0  0
   14.3910   -6.8150   -0.8480 C   0  0  0  0  0  0  0  0  0  0  0  0
   15.5270   -6.9670   -1.5930 C   0  0  0  0  0  0  0  0  0  0  0  0
   16.2110   -5.4290   -2.0460 S   0  0  0  0  0  0  0  0  0  0  0  0
   13.3120   -2.7370   -0.7910 C   0  0  0  0  0  0  0  0  0  0  0  0
   12.4480   -2.6730   -1.6750 O   0  0  0  0  0  0  0  0  0  0  0  0
   10.9570   -2.5360    0.5850 H   0  0  0  0  0  0  0  0  0  0  0  0
   11.6870   -2.3480    2.1850 H   0  0  0  0  0  0  0  0  0  0  0  0
   11.6580   -0.9790    1.0510 H   0  0  0  0  0  0  0  0  0  0  0  0
   15.3580   -2.4090    2.9620 H   0  0  0  0  0  0  0  0  0  0  0  0
   16.2310   -2.9310    0.7290 H   0  0  0  0  0  0  0  0  0  0  0  0
   15.8820   -3.4030   -3.5910 H   0  0  0  0  0  0  0  0  0  0  0  0
   16.7790   -1.6900   -5.0300 H   0  0  0  0  0  0  0  0  0  0  0  0
   16.6580    0.6820   -4.4120 H   0  0  0  0  0  0  0  0  0  0  0  0
   15.3300    2.4000   -4.1670 H   0  0  0  0  0  0  0  0  0  0  0  0
   14.8190    4.7550   -3.6300 H   0  0  0  0  0  0  0  0  0  0  0  0
   14.7890    5.5260   -1.2730 H   0  0  0  0  0  0  0  0  0  0  0  0
   15.8550    1.5830    0.0370 H   0  0  0  0  0  0  0  0  0  0  0  0
   15.0400   -0.3910   -0.5830 H   0  0  0  0  0  0  0  0  0  0  0  0
   13.7690   -7.5950   -0.4290 H   0  0  0  0  0  0  0  0  0  0  0  0
   15.9900   -7.8910   -1.9000 H   0  0  0  0  0  0  0  0  0  0  0  0
   13.6840   -2.0470    3.2070 H   0  0  0  0  0  0  0  0  0  0  0  0
  1  2  1  0  0  0  0
  1 27  1  0  0  0  0
  1 28  1  0  0  0  0
  1 29  1  0  0  0  0
  2  3  1  0  0  0  0
  2 25  1  0  0  0  0
  3  4  1  6  0  0  0
  3  5  1  0  0  0  0
  4 30  1  0  0  0  0
  4 42  1  0  0  0  0
  5  6  1  0  0  0  0
  5 31  1  0  0  0  0
  6  7  1  6  0  0  0
  6 20  1  0  0  0  0
  6 25  1  0  0  0  0
  7  8  2  0  0  0  0
  7 19  1  0  0  0  0
  8  9  1  0  0  0  0
  8 32  1  0  0  0  0
  9 10  2  0  0  0  0
  9 33  1  0  0  0  0
 10 11  1  0  0  0  0
 10 34  1  0  0  0  0
 11 12  1  0  0  0  0
 11 19  2  0  0  0  0
 12 13  2  0  0  0  0
 12 18  1  0  0  0  0
 13 14  1  0  0  0  0
 13 35  1  0  0  0  0
 14 15  2  0  0  0  0
 14 36  1  0  0  0  0
 15 16  1  0  0  0  0
 15 37  1  0  0  0  0
 16 17  1  0  0  0  0
 16 18  2  0  0  0  0
 18 38  1  0  0  0  0
 19 39  1  0  0  0  0
 20 21  2  0  0  0  0
 20 24  1  0  0  0  0
 21 22  1  0  0  0  0
 22 23  2  0  0  0  0
 22 40  1  0  0  0  0
 23 24  1  0  0  0  0
 23 41  1  0  0  0  0
 25 26  2  0  0  0  0
M  CHG  1   5   1
M  END
