@<TRIPOS>MOLECULE
../datasets/input/BACE/poses/09/ligand.pdb
 42 45 0 0 0
SMALL
GASTEIGER

@<TRIPOS>ATOM
      1  C         11.7740   -2.0620    1.1340 C.3     0  UNK0        0.0103
      2  N         13.0790   -2.4520    0.5880 N.am    0  UNK0       -0.2328
      3  C         14.2430   -2.5420    1.2540 C.3     0  UNK0        0.2310
      4  N         14.4170   -2.3500    2.5690 N.3     0  UNK0       -0.2608
      5  N         15.2560   -2.8530    0.4410 N.4     0  UNK0        0.3833
      6  C         14.8080   -3.0850   -0.9330 C.3     0  UNK0        0.1746
      7  C         15.4270   -2.0580   -1.9130 C.ar    0  UNK0        0.0213
      8  C         15.8990   -2.3990   -3.2010 C.ar    0  UNK0       -0.0520
      9  C         16.3930   -1.4100   -4.0610 C.ar    0  UNK0       -0.0607
     10  C         16.3360   -0.0550   -3.6930 C.ar    0  UNK0       -0.0540
     11  C         15.8300    0.3420   -2.4380 C.ar    0  UNK0       -0.0174
     12  C         15.6350    1.7780   -2.1100 C.ar    0  UNK0       -0.0165
     13  C         15.3650    2.7170   -3.1350 C.ar    0  UNK0       -0.0539
     14  C         15.0640    4.0620   -2.8390 C.ar    0  UNK0       -0.0598
     15  C         15.0420    4.5010   -1.5070 C.ar    0  UNK0       -0.0434
     16  C         15.3460    3.6010   -0.4750 C.ar    0  UNK0        0.0416
     17 Cl         15.3400    4.1600    1.1570 Cl      0  UNK0       -0.0835
     18  C         15.6380    2.2540   -0.7760 C.ar    0  UNK0       -0.0357
     19  C         15.4350   -0.6820   -1.5450 C.ar    0  UNK0       -0.0443
     20  C         14.8980   -4.5910   -1.1990 C.ar    0  UNK0        0.1445
     21  N         14.0680   -5.4770   -0.6140 N.ar    0  UNK0       -0.2454
     22  C         14.3910   -6.8150   -0.8480 C.ar    0  UNK0        0.0353
     23  C         15.5270   -6.9670   -1.5930 C.ar    0  UNK0       -0.0043
     24  S         16.2110   -5.4290   -2.0460 S.2     0  UNK0       -0.0738
     25  C         13.3120   -2.7370   -0.7910 C.2     0  UNK0        0.2854
     26  O         12.4480   -2.6730   -1.6750 O.2     0  UNK0       -0.2679
     27  H         10.9570   -2.5360    0.5850 H       0  UNK0        0.0431
     28  H         11.6870   -2.3480    2.1850 H       0  UNK0        0.0431
     29  H         11.6580   -0.9790    1.0510 H       0  UNK0        0.0431
     30  H         15.3580   -2.4090    2.9620 H       0  UNK0        0.1257
     31  H         16.2310   -2.9310    0.7290 H       0  UNK0        0.2433
     32  H         15.8820   -3.4030   -3.5910 H       0  UNK0        0.0623
     33  H         16.7790   -1.6900   -5.0300 H       0  UNK0        0.0618
     34  H         16.6580    0.6820   -4.4120 H       0  UNK0        0.0624
     35  H         15.3300    2.4000   -4.1670 H       0  UNK0        0.0624
     36  H         14.8190    4.7550   -3.6300 H       0  UNK0        0.0618
     37  H         14.7890    5.5260   -1.2730 H       0  UNK0        0.0632
     38  H         15.8550    1.5830    0.0370 H       0  UNK0        0.0638
     39  H         15.0400   -0.3910   -0.5830 H       0  UNK0        0.0629
     40  H         13.7690   -7.5950   -0.4290 H       0  UNK0        0.0835
     41  H         15.9900   -7.8910   -1.9000 H       0  UNK0        0.0709
     42  H         13.6840   -2.0470    3.2070 H       0  UNK0        0.1257
@<TRIPOS>BOND
     1     1     2    1
     2     1    27    1
     3     1    28    1
     4     1    29    1
     5     2     3    1
     6     2    25   am
     7     3     4    1
     8     3     5    1
     9     4    30    1
    10     4    42    1
    11     5     6    1
    12     5    31    1
    13     6     7    1
    14     6    20    1
    15     6    25    1
    16     7     8   ar
    17     7    19   ar
    18     8     9   ar
    19     8    32    1
    20     9    10   ar
    21     9    33    1
    22    10    11   ar
    23    10    34    1
    24    11    12    1
    25    11    19   ar
    26    12    13   ar
    27    12    18   ar
    28    13    14   ar
    29    13    35    1
    30    14    15   ar
    31    14    36    1
    32    15    16   ar
    33    15    37    1
    34    16    17    1
    35    16    18   ar
    36    18    38    1
    37    19    39    1
    38    20    21   ar
    39    20    24   ar
    40    21    22   ar
    41    22    23   ar
    42    22    40    1
    43    23    24   ar
    44    23    41    1
    45    25    26    2
