../datasets/input/BACE/poses/20/ligand.pdb
 OpenBabel02191913393D

 52 55  0  0  1  0  0  0  0  0999 V2000
   11.6820   -2.1710    1.3300 C   0  0  0  0  0  0  0  0  0  0  0  0
   12.9760   -2.4300    0.6900 N   0  0  0  0  0  0  0  0  0  0  0  0
   14.1860   -2.5030    1.2750 C   0  0  1  0  0  0  0  0  0  0  0  0
   14.4360   -2.3450    2.5800 N   0  0  0  0  0  0  0  0  0  0  0  0
   15.1500   -2.7840    0.3900 N   0  3  0  0  0  0  0  0  0  0  0  0
   14.6010   -2.9820   -0.9560 C   0  0  1  0  0  0  0  0  0  0  0  0
   15.1280   -1.9200   -1.9460 C   0  0  0  0  0  0  0  0  0  0  0  0
   15.4910   -2.2560   -3.2690 C   0  0  0  0  0  0  0  0  0  0  0  0
   16.0030   -1.2810   -4.1320 C   0  0  0  0  0  0  0  0  0  0  0  0
   16.0560    0.0660   -3.7340 C   0  0  0  0  0  0  0  0  0  0  0  0
   15.6100    0.4650   -2.4550 C   0  0  0  0  0  0  0  0  0  0  0  0
   15.4770    1.9020   -2.1040 C   0  0  0  0  0  0  0  0  0  0  0  0
   15.1740    2.8580   -3.1040 C   0  0  0  0  0  0  0  0  0  0  0  0
   14.9080    4.2030   -2.7790 C   0  0  0  0  0  0  0  0  0  0  0  0
   14.9470    4.6240   -1.4410 C   0  0  0  0  0  0  0  0  0  0  0  0
   15.2830    3.7050   -0.4340 C   0  0  0  0  0  0  0  0  0  0  0  0
   15.3420    4.2340    1.2070 Cl  0  0  0  0  0  0  0  0  0  0  0  0
   15.5530    2.3610   -0.7660 C   0  0  0  0  0  0  0  0  0  0  0  0
   15.2060   -0.5550   -1.5580 C   0  0  0  0  0  0  0  0  0  0  0  0
   14.7890   -4.4800   -1.3900 C   0  0  0  0  0  0  0  0  0  0  0  0
   16.2630   -4.8720   -1.6060 C   0  0  0  0  0  0  0  0  0  0  0  0
   16.3890   -6.2770   -2.2010 C   0  0  0  0  0  0  0  0  0  0  0  0
   15.8130   -7.3000   -1.2240 C   0  0  0  0  0  0  0  0  0  0  0  0
   14.3460   -6.9750   -0.9190 C   0  0  0  0  0  0  0  0  0  0  0  0
   14.1670   -5.5280   -0.4190 C   0  0  0  0  0  0  0  0  0  0  0  0
   13.1180   -2.6880   -0.7030 C   0  0  0  0  0  0  0  0  0  0  0  0
   12.1860   -2.7190   -1.5140 O   0  0  0  0  0  0  0  0  0  0  0  0
   11.3560   -1.1580    1.0940 H   0  0  0  0  0  0  0  0  0  0  0  0
   10.9230   -2.8630    0.9660 H   0  0  0  0  0  0  0  0  0  0  0  0
   11.7460   -2.2840    2.4100 H   0  0  0  0  0  0  0  0  0  0  0  0
   13.7420   -2.0410    3.2610 H   0  0  0  0  0  0  0  0  0  0  0  0
   16.1420   -2.8460    0.6120 H   0  0  0  0  0  0  0  0  0  0  0  0
   15.4230   -3.2620   -3.6540 H   0  0  0  0  0  0  0  0  0  0  0  0
   16.3340   -1.5770   -5.1140 H   0  0  0  0  0  0  0  0  0  0  0  0
   16.4160    0.7930   -4.4470 H   0  0  0  0  0  0  0  0  0  0  0  0
   15.0830    2.5510   -4.1350 H   0  0  0  0  0  0  0  0  0  0  0  0
   14.6440    4.9090   -3.5550 H   0  0  0  0  0  0  0  0  0  0  0  0
   14.7210    5.6480   -1.1820 H   0  0  0  0  0  0  0  0  0  0  0  0
   15.7990    1.6740    0.0260 H   0  0  0  0  0  0  0  0  0  0  0  0
   14.8760   -0.2710   -0.5720 H   0  0  0  0  0  0  0  0  0  0  0  0
   14.2660   -4.6100   -2.3390 H   0  0  0  0  0  0  0  0  0  0  0  0
   16.7770   -4.1760   -2.2560 H   0  0  0  0  0  0  0  0  0  0  0  0
   16.7870   -4.8370   -0.6500 H   0  0  0  0  0  0  0  0  0  0  0  0
   17.4340   -6.5020   -2.4010 H   0  0  0  0  0  0  0  0  0  0  0  0
   15.8710   -6.3310   -3.1600 H   0  0  0  0  0  0  0  0  0  0  0  0
   15.9010   -8.3040   -1.6300 H   0  0  0  0  0  0  0  0  0  0  0  0
   16.4020   -7.2920   -0.3050 H   0  0  0  0  0  0  0  0  0  0  0  0
   13.7480   -7.1280   -1.8190 H   0  0  0  0  0  0  0  0  0  0  0  0
   13.9650   -7.6730   -0.1730 H   0  0  0  0  0  0  0  0  0  0  0  0
   14.6310   -5.4380    0.5640 H   0  0  0  0  0  0  0  0  0  0  0  0
   13.1010   -5.3580   -0.2720 H   0  0  0  0  0  0  0  0  0  0  0  0
   15.3990   -2.4100    2.9170 H   0  0  0  0  0  0  0  0  0  0  0  0
  1  2  1  0  0  0  0
  1 28  1  0  0  0  0
  1 29  1  0  0  0  0
  1 30  1  0  0  0  0
  2  3  1  0  0  0  0
  2 26  1  0  0  0  0
  3  4  1  1  0  0  0
  3  5  1  0  0  0  0
  4 31  1  0  0  0  0
  4 52  1  0  0  0  0
  5  6  1  0  0  0  0
  5 32  1  0  0  0  0
  6  7  1  6  0  0  0
  6 20  1  0  0  0  0
  6 26  1  0  0  0  0
  7  8  2  0  0  0  0
  7 19  1  0  0  0  0
  8  9  1  0  0  0  0
  8 33  1  0  0  0  0
  9 10  2  0  0  0  0
  9 34  1  0  0  0  0
 10 11  1  0  0  0  0
 10 35  1  0  0  0  0
 11 12  1  0  0  0  0
 11 19  2  0  0  0  0
 12 13  2  0  0  0  0
 12 18  1  0  0  0  0
 13 14  1  0  0  0  0
 13 36  1  0  0  0  0
 14 15  2  0  0  0  0
 14 37  1  0  0  0  0
 15 16  1  0  0  0  0
 15 38  1  0  0  0  0
 16 17  1  0  0  0  0
 16 18  2  0  0  0  0
 18 39  1  0  0  0  0
 19 40  1  0  0  0  0
 20 21  1  0  0  0  0
 20 25  1  0  0  0  0
 20 41  1  0  0  0  0
 21 22  1  0  0  0  0
 21 42  1  0  0  0  0
 21 43  1  0  0  0  0
 22 23  1  0  0  0  0
 22 44  1  0  0  0  0
 22 45  1  0  0  0  0
 23 24  1  0  0  0  0
 23 46  1  0  0  0  0
 23 47  1  0  0  0  0
 24 25  1  0  0  0  0
 24 48  1  0  0  0  0
 24 49  1  0  0  0  0
 25 50  1  0  0  0  0
 25 51  1  0  0  0  0
 26 27  2  0  0  0  0
M  CHG  1   5   1
M  END
