@<TRIPOS>MOLECULE
../datasets/input/BACE/poses/10/ligand.pdb
 39 41 0 0 0
SMALL
GASTEIGER

@<TRIPOS>ATOM
      1  C         11.8130   -2.0990    1.0830 C.3     0  UNK0        0.0103
      2  N         13.1330   -2.4680    0.5580 N.am    0  UNK0       -0.2332
      3  C         14.2850   -2.5310    1.2460 C.3     0  UNK0        0.2305
      4  N         14.4320   -2.3250    2.5600 N.3     0  UNK0       -0.2608
      5  N         15.3130   -2.8530    0.4550 N.4     0  UNK0        0.3782
      6  C         14.9090   -3.0360   -0.9380 C.3     0  UNK0        0.1226
      7  C         15.1890   -4.4890   -1.3780 C.3     0  UNK0       -0.0039
      8  C         15.5120   -1.9640   -1.8620 C.ar    0  UNK0        0.0143
      9  C         16.1760   -2.3130   -3.0620 C.ar    0  UNK0       -0.0524
     10  C         16.6330   -1.3120   -3.9320 C.ar    0  UNK0       -0.0607
     11  C         16.4140    0.0420   -3.6290 C.ar    0  UNK0       -0.0540
     12  C         15.7990    0.4330   -2.4210 C.ar    0  UNK0       -0.0174
     13  C         15.5500    1.8630   -2.1170 C.ar    0  UNK0       -0.0165
     14  C         15.2540    2.7800   -3.1520 C.ar    0  UNK0       -0.0539
     15  C         14.9340    4.1240   -2.8690 C.ar    0  UNK0       -0.0598
     16  C         14.9160    4.5780   -1.5400 C.ar    0  UNK0       -0.0434
     17  C         15.2410    3.6930   -0.4990 C.ar    0  UNK0        0.0416
     18 Cl         15.2370    4.2620    1.1300 Cl      0  UNK0       -0.0835
     19  C         15.5570    2.3500   -0.7890 C.ar    0  UNK0       -0.0357
     20  C         15.3760   -0.5880   -1.5400 C.ar    0  UNK0       -0.0447
     21  C         13.3950   -2.8050   -0.8050 C.2     0  UNK0        0.2783
     22  O         12.5340   -2.8850   -1.6870 O.2     0  UNK0       -0.2684
     23  H         11.6710   -1.0230    0.9800 H       0  UNK0        0.0431
     24  H         11.0130   -2.6020    0.5390 H       0  UNK0        0.0431
     25  H         11.7240   -2.3620    2.1370 H       0  UNK0        0.0431
     26  H         15.3680   -2.3770    2.9680 H       0  UNK0        0.1257
     27  H         16.2870   -2.8880    0.7610 H       0  UNK0        0.2427
     28  H         16.2600   -4.6770   -1.4690 H       0  UNK0        0.0296
     29  H         14.8010   -5.2070   -0.6550 H       0  UNK0        0.0296
     30  H         14.7220   -4.7160   -2.3390 H       0  UNK0        0.0296
     31  H         16.3360   -3.3390   -3.3590 H       0  UNK0        0.0622
     32  H         17.1290   -1.5870   -4.8530 H       0  UNK0        0.0618
     33  H         16.7240    0.7860   -4.3450 H       0  UNK0        0.0624
     34  H         15.2240    2.4440   -4.1780 H       0  UNK0        0.0624
     35  H         14.6760    4.8040   -3.6680 H       0  UNK0        0.0618
     36  H         14.6510    5.6010   -1.3160 H       0  UNK0        0.0632
     37  H         15.8010    1.6880    0.0250 H       0  UNK0        0.0638
     38  H         14.8780   -0.3030   -0.6260 H       0  UNK0        0.0628
     39  H         13.6880   -2.0200    3.1840 H       0  UNK0        0.1257
@<TRIPOS>BOND
     1     1     2    1
     2     1    23    1
     3     1    24    1
     4     1    25    1
     5     2     3    1
     6     2    21   am
     7     3     4    1
     8     3     5    1
     9     4    26    1
    10     4    39    1
    11     5     6    1
    12     5    27    1
    13     6     7    1
    14     6     8    1
    15     6    21    1
    16     7    28    1
    17     7    29    1
    18     7    30    1
    19     8     9   ar
    20     8    20   ar
    21     9    10   ar
    22     9    31    1
    23    10    11   ar
    24    10    32    1
    25    11    12   ar
    26    11    33    1
    27    12    13    1
    28    12    20   ar
    29    13    14   ar
    30    13    19   ar
    31    14    15   ar
    32    14    34    1
    33    15    16   ar
    34    15    35    1
    35    16    17   ar
    36    16    36    1
    37    17    18    1
    38    17    19   ar
    39    19    37    1
    40    20    38    1
    41    21    22    2
