@<TRIPOS>MOLECULE
../fesetup/poses/08/ligand.pdb
 44 47 0 0 0
SMALL
GASTEIGER

@<TRIPOS>ATOM
      1  C         11.7500   -2.1050    1.1750 C.3     0  UNK0        0.0103
      2  N         13.0750   -2.4190    0.6270 N.am    0  UNK0       -0.2328
      3  C         14.2390   -2.4820    1.2960 C.3     0  UNK0        0.2311
      4  N         14.4010   -2.3320    2.6150 N.3     0  UNK0       -0.2608
      5  N         15.2680   -2.7180    0.4810 N.4     0  UNK0        0.3841
      6  C         14.8330   -2.9710   -0.8900 C.3     0  UNK0        0.1857
      7  C         15.4350   -1.9350   -1.8790 C.ar    0  UNK0        0.0223
      8  C         15.9250   -2.2770   -3.1640 C.ar    0  UNK0       -0.0519
      9  C         16.4040   -1.2870   -4.0320 C.ar    0  UNK0       -0.0607
     10  C         16.3190    0.0690   -3.6780 C.ar    0  UNK0       -0.0540
     11  C         15.8040    0.4640   -2.4250 C.ar    0  UNK0       -0.0174
     12  C         15.5940    1.8950   -2.0970 C.ar    0  UNK0       -0.0165
     13  C         15.2920    2.8270   -3.1190 C.ar    0  UNK0       -0.0539
     14  C         14.9800    4.1680   -2.8200 C.ar    0  UNK0       -0.0598
     15  C         14.9710    4.6060   -1.4850 C.ar    0  UNK0       -0.0434
     16  C         15.3020    3.7100   -0.4570 C.ar    0  UNK0        0.0416
     17 Cl         15.2990    4.2580    1.1790 Cl      0  UNK0       -0.0835
     18  C         15.6140    2.3700   -0.7640 C.ar    0  UNK0       -0.0357
     19  C         15.4170   -0.5570   -1.5260 C.ar    0  UNK0       -0.0442
     20  C         15.0330   -4.4910   -1.1330 C.ar    0  UNK0        0.1966
     21  N         14.1930   -5.3340   -0.5180 N.ar    0  UNK0       -0.2341
     22  C         14.3980   -6.6540   -0.6630 C.ar    0  UNK0        0.0313
     23  C         15.4740   -7.1470   -1.4000 C.ar    0  UNK0       -0.0254
     24  C         16.3280   -6.1960   -1.9580 C.ar    0  UNK0        0.0313
     25  N         16.1150   -4.8880   -1.7940 N.ar    0  UNK0       -0.2341
     26  C         13.3290   -2.6540   -0.7570 C.2     0  UNK0        0.2864
     27  O         12.4700   -2.5730   -1.6460 O.2     0  UNK0       -0.2679
     28  H         10.9710   -2.6750    0.6660 H       0  UNK0        0.0431
     29  H         11.7000   -2.3380    2.2390 H       0  UNK0        0.0431
     30  H         11.5420   -1.0440    1.0330 H       0  UNK0        0.0431
     31  H         15.3410   -2.3800    3.0110 H       0  UNK0        0.1257
     32  H         16.2380   -2.8280    0.7730 H       0  UNK0        0.2434
     33  H         15.9510   -3.2890   -3.5360 H       0  UNK0        0.0623
     34  H         16.8060   -1.5770   -4.9910 H       0  UNK0        0.0618
     35  H         16.6350    0.8050   -4.4000 H       0  UNK0        0.0624
     36  H         15.2450    2.5040   -4.1480 H       0  UNK0        0.0624
     37  H         14.7180    4.8560   -3.6100 H       0  UNK0        0.0618
     38  H         14.7080    5.6280   -1.2480 H       0  UNK0        0.0632
     39  H         15.8540    1.7020    0.0460 H       0  UNK0        0.0638
     40  H         15.0130   -0.2650   -0.5700 H       0  UNK0        0.0629
     41  H         13.6950   -7.3190   -0.1840 H       0  UNK0        0.0831
     42  H         15.6330   -8.2070   -1.5230 H       0  UNK0        0.0648
     43  H         17.1960   -6.4810   -2.5300 H       0  UNK0        0.0831
     44  H         13.6600   -2.0570    3.2580 H       0  UNK0        0.1257
@<TRIPOS>BOND
     1     1     2    1
     2     1    28    1
     3     1    29    1
     4     1    30    1
     5     2     3    1
     6     2    26   am
     7     3     4    1
     8     3     5    1
     9     4    31    1
    10     4    44    1
    11     5     6    1
    12     5    32    1
    13     6     7    1
    14     6    20    1
    15     6    26    1
    16     7     8   ar
    17     7    19   ar
    18     8     9   ar
    19     8    33    1
    20     9    10   ar
    21     9    34    1
    22    10    11   ar
    23    10    35    1
    24    11    12    1
    25    11    19   ar
    26    12    13   ar
    27    12    18   ar
    28    13    14   ar
    29    13    36    1
    30    14    15   ar
    31    14    37    1
    32    15    16   ar
    33    15    38    1
    34    16    17    1
    35    16    18   ar
    36    18    39    1
    37    19    40    1
    38    20    21   ar
    39    20    25   ar
    40    21    22   ar
    41    22    23   ar
    42    22    41    1
    43    23    24   ar
    44    23    42    1
    45    24    25   ar
    46    24    43    1
    47    26    27    2
