@<TRIPOS>MOLECULE
../datasets/input/BACE/poses/05/ligand.pdb
 44 47 0 0 0
SMALL
GASTEIGER

@<TRIPOS>ATOM
      1  C         11.7110   -2.3110    1.2620 C.3     0  UNK0        0.0103
      2  N         13.0350   -2.6400    0.7180 N.am    0  UNK0       -0.2329
      3  C         14.2030   -2.6170    1.3750 C.3     0  UNK0        0.2310
      4  N         14.3770   -2.3590    2.6740 N.3     0  UNK0       -0.2608
      5  N         15.2270   -2.8950    0.5700 N.4     0  UNK0        0.3817
      6  C         14.8060   -3.2170   -0.7950 C.3     0  UNK0        0.1513
      7  C         15.1520   -4.6980   -1.0840 C.ar    0  UNK0        0.0187
      8  C         14.3050   -5.5760   -1.8010 C.ar    0  UNK0       -0.0521
      9  C         14.6500   -6.9310   -1.9840 C.ar    0  UNK0       -0.0613
     10  C         15.8630   -7.4260   -1.4790 C.ar    0  UNK0       -0.0617
     11  C         16.7310   -6.5660   -0.7970 C.ar    0  UNK0       -0.0613
     12  C         16.3650   -5.2250   -0.5910 C.ar    0  UNK0       -0.0521
     13  C         15.3840   -2.1980   -1.7960 C.ar    0  UNK0        0.0193
     14  C         15.9240   -2.5920   -3.0420 C.ar    0  UNK0       -0.0520
     15  C         16.3870   -1.6180   -3.9470 C.ar    0  UNK0       -0.0607
     16  C         16.3040   -0.2490   -3.6280 C.ar    0  UNK0       -0.0525
     17  C         15.8000    0.1820   -2.3820 C.ar    0  UNK0        0.0023
     18  C         15.7080    1.6220   -2.0290 C.ar    0  UNK0        0.0890
     19  C         15.7060    2.0790   -0.6870 C.ar    0  UNK0        0.0535
     20  N         15.5290    3.3730   -0.3400 N.ar    0  UNK0       -0.2596
     21  C         15.3500    4.2350   -1.3630 C.ar    0  UNK0        0.0457
     22  C         15.3870    3.8090   -2.7080 C.ar    0  UNK0        0.0464
     23  N         15.5690    2.5100   -3.0470 N.ar    0  UNK0       -0.2520
     24  C         15.3590   -0.8150   -1.4790 C.ar    0  UNK0       -0.0428
     25  C         13.2850   -2.9800   -0.6450 C.2     0  UNK0        0.2833
     26  O         12.4100   -3.0280   -1.5170 O.2     0  UNK0       -0.2680
     27  H         10.9250   -2.8720    0.7570 H       0  UNK0        0.0431
     28  H         11.6570   -2.5380    2.3260 H       0  UNK0        0.0431
     29  H         11.5140   -1.2490    1.1210 H       0  UNK0        0.0431
     30  H         15.3210   -2.3640    3.0630 H       0  UNK0        0.1257
     31  H         16.2050   -2.8990    0.8580 H       0  UNK0        0.2432
     32  H         13.3660   -5.2370   -2.2020 H       0  UNK0        0.0623
     33  H         13.9800   -7.5970   -2.5060 H       0  UNK0        0.0618
     34  H         16.1270   -8.4630   -1.5950 H       0  UNK0        0.0618
     35  H         17.6700   -6.9320   -0.4070 H       0  UNK0        0.0618
     36  H         17.0280   -4.6010   -0.0210 H       0  UNK0        0.0623
     37  H         15.9840   -3.6330   -3.3300 H       0  UNK0        0.0623
     38  H         16.7980   -1.9160   -4.9020 H       0  UNK0        0.0618
     39  H         16.6290    0.4810   -4.3550 H       0  UNK0        0.0624
     40  H         15.8530    1.3930    0.1280 H       0  UNK0        0.0851
     41  H         15.1810    5.2710   -1.1090 H       0  UNK0        0.0845
     42  H         15.2470    4.5230   -3.5030 H       0  UNK0        0.0845
     43  H         14.9460   -0.5020   -0.5320 H       0  UNK0        0.0629
     44  H         13.6340   -2.0710    3.3100 H       0  UNK0        0.1257
@<TRIPOS>BOND
     1     1     2    1
     2     1    27    1
     3     1    28    1
     4     1    29    1
     5     2     3    1
     6     2    25   am
     7     3     4    1
     8     3     5    1
     9     4    30    1
    10     4    44    1
    11     5     6    1
    12     5    31    1
    13     6     7    1
    14     6    13    1
    15     6    25    1
    16     7     8   ar
    17     7    12   ar
    18     8     9   ar
    19     8    32    1
    20     9    10   ar
    21     9    33    1
    22    10    11   ar
    23    10    34    1
    24    11    12   ar
    25    11    35    1
    26    12    36    1
    27    13    14   ar
    28    13    24   ar
    29    14    15   ar
    30    14    37    1
    31    15    16   ar
    32    15    38    1
    33    16    17   ar
    34    16    39    1
    35    17    18    1
    36    17    24   ar
    37    18    19   ar
    38    18    23   ar
    39    19    20   ar
    40    19    40    1
    41    20    21   ar
    42    21    22   ar
    43    21    41    1
    44    22    23   ar
    45    22    42    1
    46    24    43    1
    47    25    26    2
