../datasets/input/BACE/poses/05/ligand.pdb
 OpenBabel02191913393D

 44 47  0  0  1  0  0  0  0  0999 V2000
   11.7110   -2.3110    1.2620 C   0  0  0  0  0  0  0  0  0  0  0  0
   13.0350   -2.6400    0.7180 N   0  0  0  0  0  0  0  0  0  0  0  0
   14.2030   -2.6170    1.3750 C   0  0  1  0  0  0  0  0  0  0  0  0
   14.3770   -2.3590    2.6740 N   0  0  0  0  0  0  0  0  0  0  0  0
   15.2270   -2.8950    0.5700 N   0  3  0  0  0  0  0  0  0  0  0  0
   14.8060   -3.2170   -0.7950 C   0  0  2  0  0  0  0  0  0  0  0  0
   15.1520   -4.6980   -1.0840 C   0  0  0  0  0  0  0  0  0  0  0  0
   14.3050   -5.5760   -1.8010 C   0  0  0  0  0  0  0  0  0  0  0  0
   14.6500   -6.9310   -1.9840 C   0  0  0  0  0  0  0  0  0  0  0  0
   15.8630   -7.4260   -1.4790 C   0  0  0  0  0  0  0  0  0  0  0  0
   16.7310   -6.5660   -0.7970 C   0  0  0  0  0  0  0  0  0  0  0  0
   16.3650   -5.2250   -0.5910 C   0  0  0  0  0  0  0  0  0  0  0  0
   15.3840   -2.1980   -1.7960 C   0  0  0  0  0  0  0  0  0  0  0  0
   15.9240   -2.5920   -3.0420 C   0  0  0  0  0  0  0  0  0  0  0  0
   16.3870   -1.6180   -3.9470 C   0  0  0  0  0  0  0  0  0  0  0  0
   16.3040   -0.2490   -3.6280 C   0  0  0  0  0  0  0  0  0  0  0  0
   15.8000    0.1820   -2.3820 C   0  0  0  0  0  0  0  0  0  0  0  0
   15.7080    1.6220   -2.0290 C   0  0  0  0  0  0  0  0  0  0  0  0
   15.7060    2.0790   -0.6870 C   0  0  0  0  0  0  0  0  0  0  0  0
   15.5290    3.3730   -0.3400 N   0  0  0  0  0  0  0  0  0  0  0  0
   15.3500    4.2350   -1.3630 C   0  0  0  0  0  0  0  0  0  0  0  0
   15.3870    3.8090   -2.7080 C   0  0  0  0  0  0  0  0  0  0  0  0
   15.5690    2.5100   -3.0470 N   0  0  0  0  0  0  0  0  0  0  0  0
   15.3590   -0.8150   -1.4790 C   0  0  0  0  0  0  0  0  0  0  0  0
   13.2850   -2.9800   -0.6450 C   0  0  0  0  0  0  0  0  0  0  0  0
   12.4100   -3.0280   -1.5170 O   0  0  0  0  0  0  0  0  0  0  0  0
   10.9250   -2.8720    0.7570 H   0  0  0  0  0  0  0  0  0  0  0  0
   11.6570   -2.5380    2.3260 H   0  0  0  0  0  0  0  0  0  0  0  0
   11.5140   -1.2490    1.1210 H   0  0  0  0  0  0  0  0  0  0  0  0
   15.3210   -2.3640    3.0630 H   0  0  0  0  0  0  0  0  0  0  0  0
   16.2050   -2.8990    0.8580 H   0  0  0  0  0  0  0  0  0  0  0  0
   13.3660   -5.2370   -2.2020 H   0  0  0  0  0  0  0  0  0  0  0  0
   13.9800   -7.5970   -2.5060 H   0  0  0  0  0  0  0  0  0  0  0  0
   16.1270   -8.4630   -1.5950 H   0  0  0  0  0  0  0  0  0  0  0  0
   17.6700   -6.9320   -0.4070 H   0  0  0  0  0  0  0  0  0  0  0  0
   17.0280   -4.6010   -0.0210 H   0  0  0  0  0  0  0  0  0  0  0  0
   15.9840   -3.6330   -3.3300 H   0  0  0  0  0  0  0  0  0  0  0  0
   16.7980   -1.9160   -4.9020 H   0  0  0  0  0  0  0  0  0  0  0  0
   16.6290    0.4810   -4.3550 H   0  0  0  0  0  0  0  0  0  0  0  0
   15.8530    1.3930    0.1280 H   0  0  0  0  0  0  0  0  0  0  0  0
   15.1810    5.2710   -1.1090 H   0  0  0  0  0  0  0  0  0  0  0  0
   15.2470    4.5230   -3.5030 H   0  0  0  0  0  0  0  0  0  0  0  0
   14.9460   -0.5020   -0.5320 H   0  0  0  0  0  0  0  0  0  0  0  0
   13.6340   -2.0710    3.3100 H   0  0  0  0  0  0  0  0  0  0  0  0
  1  2  1  0  0  0  0
  1 27  1  0  0  0  0
  1 28  1  0  0  0  0
  1 29  1  0  0  0  0
  2  3  1  0  0  0  0
  2 25  1  0  0  0  0
  3  4  1  1  0  0  0
  3  5  1  0  0  0  0
  4 30  1  0  0  0  0
  4 44  1  0  0  0  0
  5  6  1  0  0  0  0
  5 31  1  0  0  0  0
  6  7  1  6  0  0  0
  6 13  1  0  0  0  0
  6 25  1  0  0  0  0
  7  8  2  0  0  0  0
  7 12  1  0  0  0  0
  8  9  1  0  0  0  0
  8 32  1  0  0  0  0
  9 10  2  0  0  0  0
  9 33  1  0  0  0  0
 10 11  1  0  0  0  0
 10 34  1  0  0  0  0
 11 12  2  0  0  0  0
 11 35  1  0  0  0  0
 12 36  1  0  0  0  0
 13 14  2  0  0  0  0
 13 24  1  0  0  0  0
 14 15  1  0  0  0  0
 14 37  1  0  0  0  0
 15 16  2  0  0  0  0
 15 38  1  0  0  0  0
 16 17  1  0  0  0  0
 16 39  1  0  0  0  0
 17 18  1  0  0  0  0
 17 24  2  0  0  0  0
 18 19  2  0  0  0  0
 18 23  1  0  0  0  0
 19 20  1  0  0  0  0
 19 40  1  0  0  0  0
 20 21  2  0  0  0  0
 21 22  1  0  0  0  0
 21 41  1  0  0  0  0
 22 23  2  0  0  0  0
 22 42  1  0  0  0  0
 24 43  1  0  0  0  0
 25 26  2  0  0  0  0
M  CHG  1   5   1
M  END
