@<TRIPOS>MOLECULE
../fesetup/poses/16/ligand.pdb
 45 47 0 0 0
SMALL
GASTEIGER

@<TRIPOS>ATOM
      1  C         14.8240   -5.5740   -0.0950 C.3     0  UNK0       -0.0564
      2  C         15.4100   -4.5800   -1.1310 C.3     0  UNK0        0.0141
      3  C         15.0450   -5.1770   -2.5040 C.3     0  UNK0       -0.0564
      4  C         15.0000   -3.0810   -0.8560 C.3     0  UNK0        0.1278
      5  C         15.6260   -1.9910   -1.7550 C.ar    0  UNK0        0.0148
      6  C         16.4960   -2.2940   -2.8280 C.ar    0  UNK0       -0.0524
      7  C         16.9110   -1.2930   -3.7150 C.ar    0  UNK0       -0.0607
      8  C         16.5210    0.0380   -3.5030 C.ar    0  UNK0       -0.0540
      9  C         15.7880    0.4120   -2.3600 C.ar    0  UNK0       -0.0174
     10  C         15.4740    1.8320   -2.0910 C.ar    0  UNK0       -0.0165
     11  C         15.1410    2.7150   -3.1460 C.ar    0  UNK0       -0.0539
     12  C         14.7980    4.0580   -2.8920 C.ar    0  UNK0       -0.0598
     13  C         14.7940    4.5480   -1.5750 C.ar    0  UNK0       -0.0434
     14  C         15.1520    3.6970   -0.5160 C.ar    0  UNK0        0.0416
     15 Cl         15.1670    4.3070    1.0980 Cl      0  UNK0       -0.0835
     16  C         15.4910    2.3530   -0.7760 C.ar    0  UNK0       -0.0357
     17  C         15.3470   -0.6200   -1.5010 C.ar    0  UNK0       -0.0447
     18  N         15.3360   -2.7760    0.5290 N.4     0  UNK0        0.3786
     19  C         14.2640   -2.5230    1.2770 C.3     0  UNK0        0.2305
     20  N         14.3550   -2.2990    2.5930 N.3     0  UNK0       -0.2608
     21  N         13.1360   -2.5500    0.5500 N.am    0  UNK0       -0.2332
     22  C         11.7810   -2.2580    1.0360 C.3     0  UNK0        0.0103
     23  C         13.4690   -2.8910   -0.7990 C.2     0  UNK0        0.2788
     24  O         12.6470   -3.0010   -1.7150 O.2     0  UNK0       -0.2684
     25  H         14.9200   -5.2280    0.9320 H       0  UNK0        0.0235
     26  H         13.7610   -5.7560   -0.2620 H       0  UNK0        0.0235
     27  H         15.3240   -6.5430   -0.1590 H       0  UNK0        0.0235
     28  H         16.4950   -4.6260   -1.0370 H       0  UNK0        0.0362
     29  H         15.5210   -6.1490   -2.6420 H       0  UNK0        0.0235
     30  H         13.9720   -5.3530   -2.5660 H       0  UNK0        0.0235
     31  H         15.3120   -4.5770   -3.3680 H       0  UNK0        0.0235
     32  H         16.8570   -3.2880   -3.0200 H       0  UNK0        0.0622
     33  H         17.5260   -1.5540   -4.5670 H       0  UNK0        0.0618
     34  H         16.8150    0.7850   -4.2160 H       0  UNK0        0.0624
     35  H         15.1170    2.3520   -4.1630 H       0  UNK0        0.0624
     36  H         14.5200    4.7130   -3.7050 H       0  UNK0        0.0618
     37  H         14.5170    5.5730   -1.3740 H       0  UNK0        0.0632
     38  H         15.7710    1.7170    0.0470 H       0  UNK0        0.0638
     39  H         14.7440   -0.3440   -0.6500 H       0  UNK0        0.0628
     40  H         16.2980   -2.7810    0.8710 H       0  UNK0        0.2427
     41  H         13.5760   -2.0340    3.1930 H       0  UNK0        0.1257
     42  H         11.0170   -2.6390    0.3590 H       0  UNK0        0.0431
     43  H         11.6230   -2.7040    2.0160 H       0  UNK0        0.0431
     44  H         11.6550   -1.1800    1.1210 H       0  UNK0        0.0431
     45  H         15.2760   -2.3090    3.0320 H       0  UNK0        0.1257
@<TRIPOS>BOND
     1     1     2    1
     2     1    25    1
     3     1    26    1
     4     1    27    1
     5     2     3    1
     6     2     4    1
     7     2    28    1
     8     3    29    1
     9     3    30    1
    10     3    31    1
    11     4     5    1
    12     4    18    1
    13     4    23    1
    14     5     6   ar
    15     5    17   ar
    16     6     7   ar
    17     6    32    1
    18     7     8   ar
    19     7    33    1
    20     8     9   ar
    21     8    34    1
    22     9    10    1
    23     9    17   ar
    24    10    11   ar
    25    10    16   ar
    26    11    12   ar
    27    11    35    1
    28    12    13   ar
    29    12    36    1
    30    13    14   ar
    31    13    37    1
    32    14    15    1
    33    14    16   ar
    34    16    38    1
    35    17    39    1
    36    18    19    1
    37    18    40    1
    38    19    20    1
    39    19    21    1
    40    20    41    1
    41    20    45    1
    42    21    22    1
    43    21    23   am
    44    22    42    1
    45    22    43    1
    46    22    44    1
    47    23    24    2
