mk2
  xed2sdf_05210316543D
 
 35 37  0  0  1  0  0  0  0  0999 V2000
   11.8131   -2.0987    1.0831 C   0  0  0  0  0  0  0  0  0  0  0  0
   13.1333   -2.4684    0.5574 N   0  0  0  0  0  0  0  0  0  0  0  0
   14.2852   -2.5314    1.2456 C   0  0  0  0  0  0  0  0  0  0  0  0
   14.4325   -2.3247    2.5605 N   0  0  0  0  0  0  0  0  0  0  0  0
   15.3128   -2.8536    0.4545 N   0  3  0  0  0  0  0  0  0  0  0  0
   14.9090   -3.0354   -0.9381 C   0  0  0  0  0  0  0  0  0  0  0  0
   15.5120   -1.9635   -1.8621 C   0  0  0  0  0  0  0  0  0  0  0  0
   16.1761   -2.3128   -3.0621 C   0  0  0  0  0  0  0  0  0  0  0  0
   16.6331   -1.3123   -3.9325 C   0  0  0  0  0  0  0  0  0  0  0  0
   16.4137    0.0423   -3.6289 C   0  0  0  0  0  0  0  0  0  0  0  0
   15.7987    0.4336   -2.4212 C   0  0  0  0  0  0  0  0  0  0  0  0
   15.5498    1.8628   -2.1170 C   0  0  0  0  0  0  0  0  0  0  0  0
   15.2538    2.7806   -3.1517 C   0  0  0  0  0  0  0  0  0  0  0  0
   14.9337    4.1235   -2.8692 N   0  0  0  0  0  0  0  0  0  0  0  0
   14.9158    4.5775   -1.5397 C   0  0  0  0  0  0  0  0  0  0  0  0
   15.2415    3.6932   -0.4988 C   0  0  0  0  0  0  0  0  0  0  0  0
   15.2368    4.2623    1.1299 Cl  0  0  0  0  0  0  0  0  0  0  0  0
   15.5569    2.3503   -0.7887 C   0  0  0  0  0  0  0  0  0  0  0  0
   15.3759   -0.5880   -1.5399 C   0  0  0  0  0  0  0  0  0  0  0  0
   13.3951   -2.8049   -0.8053 C   0  0  0  0  0  0  0  0  0  0  0  0
   12.5343   -2.8851   -1.6873 O   0  0  0  0  0  0  0  0  0  0  0  0
   15.1891   -4.4888   -1.3782 H   0  0  0  0  0  0  0  0  0  0  0  0
   11.6714   -1.0233    0.9797 H   0  0  0  0  0  0  0  0  0  0  0  0
   11.0131   -2.6016    0.5387 H   0  0  0  0  0  0  0  0  0  0  0  0
   11.7238   -2.3619    2.1367 H   0  0  0  0  0  0  0  0  0  0  0  0
   15.3678   -2.3767    2.9680 H   0  0  0  0  0  0  0  0  0  0  0  0
   16.3362   -3.3388   -3.3593 H   0  0  0  0  0  0  0  0  0  0  0  0
   17.1290   -1.5869   -4.8535 H   0  0  0  0  0  0  0  0  0  0  0  0
   16.7244    0.7863   -4.3450 H   0  0  0  0  0  0  0  0  0  0  0  0
   15.2246    2.4443   -4.1780 H   0  0  0  0  0  0  0  0  0  0  0  0
   14.6511    5.6013   -1.3159 H   0  0  0  0  0  0  0  0  0  0  0  0
   15.8011    1.6884    0.0253 H   0  0  0  0  0  0  0  0  0  0  0  0
   14.8782   -0.3032   -0.6256 H   0  0  0  0  0  0  0  0  0  0  0  0
   13.6879   -2.0198    3.1841 H   0  0  0  0  0  0  0  0  0  0  0  0
   16.2530   -2.9563    0.7788 H   0  0  0  0  0  0  0  0  0  0  0  0
  2  1  1  0
  3  2  1  0
  4  3  1  0
  5  3  2  0
  6  5  1  0
  7  6  1  0
  8  7  2  0
  9  8  1  0
 10  9  2  0
 11 10  1  0
 12 11  1  0
 13 12  2  0
 14 13  1  0
 15 14  2  0
 16 15  1  0
 17 16  1  0
 18 12  1  0
 18 16  2  0
 19  7  1  0
 19 11  2  0
 20  2  1  0
 20  6  1  0
 21 20  2  0
  5 35  1  0
 22  6  1  0
 23  1  1  0
 24  1  1  0
 25  1  1  0
 26  4  1  0
 27  8  1  0
 28  9  1  0
 29 10  1  0
 30 13  1  0
 31 15  1  0
 32 18  1  0
 33 19  1  0
 34  4  1  0
M  CHG  1   5   1
M  END
>  <Favorite_cresset>
false

>  <MW_cresset>
301.8

>  <#Atoms_cresset>
21

>  <SlogP_cresset>
2.3

>  <TPSA_cresset>
71

>  <Flexibility_cresset>
0

>  <#RB_cresset>
2

>  <Rof5_cresset>
0

>  <Filename_cresset>
bace_lig37.sdf

>  <_cresset_fieldpoints>
    -5      12.767265      -2.936911      -3.423934    -18.9785
    -5      10.882414      -2.618959      -2.244761    -17.3466
    -5      14.476950       5.308870      -4.301400    -10.4869
    -5      18.784348      -0.566003      -1.841146     -1.7980
    -6      12.233784      -0.915610       3.870077      7.2929
    -6      17.250135      -2.635427       2.385708     10.3929
    -6      14.899023      -1.641286       4.832502      7.6582
    -6      17.386353      -4.424379       0.303772      7.6925
    -6      16.284191       1.963339      -5.942429      4.0976
    -6      14.226629       7.343080      -0.427651      2.3578
    -7       8.871305      -0.994283       1.858506     -0.6364
    -7      13.166121      -5.237106       0.967625     -1.9034
    -7      17.139778      -4.152641      -5.745441     -1.0064
    -7      18.613701      -0.599472      -0.864037     -2.1216
    -7      15.987017      -0.179872       1.612442     -2.9841
    -7      18.437817       0.001391      -0.514091     -2.1102
    -7      18.448517       3.761890       0.235237     -1.3764
    -7      14.072647       0.368466       1.496410     -3.2487
    -7      12.649771      -0.969481      -3.286124     -2.5763
    -7      12.493994       0.597736      -0.901894     -2.8453
    -8      11.057812      -1.868646       1.399636      2.5188
    -8      15.982246      -0.942399      -2.738484      6.9147
    -8      15.532411       0.948742      -1.518416      5.4803
    -8      15.265058       3.711551      -0.147869      5.3289
    -8      15.351165       2.877382      -1.465898      5.3191
    -8      15.799185       1.243002      -3.023712      5.4413

$$$$
