@<TRIPOS>MOLECULE
../fesetup/poses/38/ligand.pdb
 35 37 0 0 0
SMALL
GASTEIGER

@<TRIPOS>ATOM
      1  C         11.8130   -2.0990    1.0830 C.3     1  LIG1        0.0103
      2  N         13.1330   -2.4680    0.5570 N.am    1  LIG1       -0.2335
      3  C         14.2850   -2.5310    1.2460 C.3     1  LIG1        0.2301
      4  N         14.4320   -2.3250    2.5610 N.3     1  LIG1       -0.2608
      5  N         15.3130   -2.8540    0.4550 N.4     1  LIG1        0.3763
      6  C         14.9090   -3.0350   -0.9380 C.3     1  LIG1        0.1150
      7  C         15.5120   -1.9640   -1.8620 C.ar    1  LIG1        0.0115
      8  C         16.1760   -2.3130   -3.0620 C.ar    1  LIG1       -0.0527
      9  C         16.6330   -1.3120   -3.9330 C.ar    1  LIG1       -0.0607
     10  C         16.4140    0.0420   -3.6290 C.ar    1  LIG1       -0.0540
     11  C         15.7990    0.4340   -2.4210 C.ar    1  LIG1       -0.0159
     12  C         15.5500    1.8630   -2.1170 C.ar    1  LIG1        0.0016
     13  C         15.2540    2.7810   -3.1520 C.ar    1  LIG1        0.0353
     14  N         14.9340    4.1230   -2.8690 N.ar    1  LIG1       -0.2612
     15  C         14.9160    4.5770   -1.5400 C.ar    1  LIG1        0.0459
     16  C         15.2420    3.6930   -0.4990 C.ar    1  LIG1        0.0596
     17 CL         15.2370    4.2620    1.1300 Cl      1  LIG1       -0.0820
     18  C         15.5570    2.3500   -0.7890 C.ar    1  LIG1       -0.0327
     19  C         15.3760   -0.5880   -1.5400 C.ar    1  LIG1       -0.0449
     20  C         13.3950   -2.8050   -0.8050 C.2     1  LIG1        0.2754
     21  O         12.5340   -2.8850   -1.6870 O.2     1  LIG1       -0.2687
     22  H         15.1890   -4.4890   -1.3780 H       1  LIG1        0.1021
     23  H         11.6710   -1.0230    0.9800 H       1  LIG1        0.0431
     24  H         11.0130   -2.6020    0.5390 H       1  LIG1        0.0431
     25  H         11.7240   -2.3620    2.1370 H       1  LIG1        0.0431
     26  H         15.3680   -2.3770    2.9680 H       1  LIG1        0.1257
     27  H         16.3360   -3.3390   -3.3590 H       1  LIG1        0.0622
     28  H         17.1290   -1.5870   -4.8540 H       1  LIG1        0.0618
     29  H         16.7240    0.7860   -4.3450 H       1  LIG1        0.0624
     30  H         15.2250    2.4440   -4.1780 H       1  LIG1        0.0836
     31  H         14.6510    5.6010   -1.3160 H       1  LIG1        0.0844
     32  H         15.8010    1.6880    0.0250 H       1  LIG1        0.0639
     33  H         14.8780   -0.3030   -0.6260 H       1  LIG1        0.0628
     34  H         13.6880   -2.0200    3.1840 H       1  LIG1        0.1257
     35  H         16.2530   -2.9560    0.7790 H       1  LIG1        0.2423
@<TRIPOS>BOND
     1     1     2    1
     2     1    23    1
     3     1    24    1
     4     1    25    1
     5     2     3    1
     6     2    20   am
     7     3     4    1
     8     3     5    1
     9     4    26    1
    10     4    34    1
    11     5     6    1
    12     5    35    1
    13     6     7    1
    14     6    20    1
    15     6    22    1
    16     7     8   ar
    17     7    19   ar
    18     8     9   ar
    19     8    27    1
    20     9    10   ar
    21     9    28    1
    22    10    11   ar
    23    10    29    1
    24    11    12    1
    25    11    19   ar
    26    12    13   ar
    27    12    18   ar
    28    13    14   ar
    29    13    30    1
    30    14    15   ar
    31    15    16   ar
    32    15    31    1
    33    16    17    1
    34    16    18   ar
    35    18    32    1
    36    19    33    1
    37    20    21    2
