../datasets/input/BACE/poses/08/ligand.pdb
 OpenBabel02191913393D

 44 47  0  0  1  0  0  0  0  0999 V2000
   11.7500   -2.1050    1.1750 C   0  0  0  0  0  0  0  0  0  0  0  0
   13.0750   -2.4190    0.6270 N   0  0  0  0  0  0  0  0  0  0  0  0
   14.2390   -2.4820    1.2960 C   0  0  2  0  0  0  0  0  0  0  0  0
   14.4010   -2.3320    2.6150 N   0  0  0  0  0  0  0  0  0  0  0  0
   15.2680   -2.7180    0.4810 N   0  3  0  0  0  0  0  0  0  0  0  0
   14.8330   -2.9710   -0.8900 C   0  0  1  0  0  0  0  0  0  0  0  0
   15.4350   -1.9350   -1.8790 C   0  0  0  0  0  0  0  0  0  0  0  0
   15.9250   -2.2770   -3.1640 C   0  0  0  0  0  0  0  0  0  0  0  0
   16.4040   -1.2870   -4.0320 C   0  0  0  0  0  0  0  0  0  0  0  0
   16.3190    0.0690   -3.6780 C   0  0  0  0  0  0  0  0  0  0  0  0
   15.8040    0.4640   -2.4250 C   0  0  0  0  0  0  0  0  0  0  0  0
   15.5940    1.8950   -2.0970 C   0  0  0  0  0  0  0  0  0  0  0  0
   15.2920    2.8270   -3.1190 C   0  0  0  0  0  0  0  0  0  0  0  0
   14.9800    4.1680   -2.8200 C   0  0  0  0  0  0  0  0  0  0  0  0
   14.9710    4.6060   -1.4850 C   0  0  0  0  0  0  0  0  0  0  0  0
   15.3020    3.7100   -0.4570 C   0  0  0  0  0  0  0  0  0  0  0  0
   15.2990    4.2580    1.1790 Cl  0  0  0  0  0  0  0  0  0  0  0  0
   15.6140    2.3700   -0.7640 C   0  0  0  0  0  0  0  0  0  0  0  0
   15.4170   -0.5570   -1.5260 C   0  0  0  0  0  0  0  0  0  0  0  0
   15.0330   -4.4910   -1.1330 C   0  0  0  0  0  0  0  0  0  0  0  0
   14.1930   -5.3340   -0.5180 N   0  0  0  0  0  0  0  0  0  0  0  0
   14.3980   -6.6540   -0.6630 C   0  0  0  0  0  0  0  0  0  0  0  0
   15.4740   -7.1470   -1.4000 C   0  0  0  0  0  0  0  0  0  0  0  0
   16.3280   -6.1960   -1.9580 C   0  0  0  0  0  0  0  0  0  0  0  0
   16.1150   -4.8880   -1.7940 N   0  0  0  0  0  0  0  0  0  0  0  0
   13.3290   -2.6540   -0.7570 C   0  0  0  0  0  0  0  0  0  0  0  0
   12.4700   -2.5730   -1.6460 O   0  0  0  0  0  0  0  0  0  0  0  0
   10.9710   -2.6750    0.6660 H   0  0  0  0  0  0  0  0  0  0  0  0
   11.7000   -2.3380    2.2390 H   0  0  0  0  0  0  0  0  0  0  0  0
   11.5420   -1.0440    1.0330 H   0  0  0  0  0  0  0  0  0  0  0  0
   15.3410   -2.3800    3.0110 H   0  0  0  0  0  0  0  0  0  0  0  0
   16.2380   -2.8280    0.7730 H   0  0  0  0  0  0  0  0  0  0  0  0
   15.9510   -3.2890   -3.5360 H   0  0  0  0  0  0  0  0  0  0  0  0
   16.8060   -1.5770   -4.9910 H   0  0  0  0  0  0  0  0  0  0  0  0
   16.6350    0.8050   -4.4000 H   0  0  0  0  0  0  0  0  0  0  0  0
   15.2450    2.5040   -4.1480 H   0  0  0  0  0  0  0  0  0  0  0  0
   14.7180    4.8560   -3.6100 H   0  0  0  0  0  0  0  0  0  0  0  0
   14.7080    5.6280   -1.2480 H   0  0  0  0  0  0  0  0  0  0  0  0
   15.8540    1.7020    0.0460 H   0  0  0  0  0  0  0  0  0  0  0  0
   15.0130   -0.2650   -0.5700 H   0  0  0  0  0  0  0  0  0  0  0  0
   13.6950   -7.3190   -0.1840 H   0  0  0  0  0  0  0  0  0  0  0  0
   15.6330   -8.2070   -1.5230 H   0  0  0  0  0  0  0  0  0  0  0  0
   17.1960   -6.4810   -2.5300 H   0  0  0  0  0  0  0  0  0  0  0  0
   13.6600   -2.0570    3.2580 H   0  0  0  0  0  0  0  0  0  0  0  0
  1  2  1  0  0  0  0
  1 28  1  0  0  0  0
  1 29  1  0  0  0  0
  1 30  1  0  0  0  0
  2  3  1  0  0  0  0
  2 26  1  0  0  0  0
  3  4  1  6  0  0  0
  3  5  1  0  0  0  0
  4 31  1  0  0  0  0
  4 44  1  0  0  0  0
  5  6  1  0  0  0  0
  5 32  1  0  0  0  0
  6  7  1  6  0  0  0
  6 20  1  0  0  0  0
  6 26  1  0  0  0  0
  7  8  2  0  0  0  0
  7 19  1  0  0  0  0
  8  9  1  0  0  0  0
  8 33  1  0  0  0  0
  9 10  2  0  0  0  0
  9 34  1  0  0  0  0
 10 11  1  0  0  0  0
 10 35  1  0  0  0  0
 11 12  1  0  0  0  0
 11 19  2  0  0  0  0
 12 13  2  0  0  0  0
 12 18  1  0  0  0  0
 13 14  1  0  0  0  0
 13 36  1  0  0  0  0
 14 15  2  0  0  0  0
 14 37  1  0  0  0  0
 15 16  1  0  0  0  0
 15 38  1  0  0  0  0
 16 17  1  0  0  0  0
 16 18  2  0  0  0  0
 18 39  1  0  0  0  0
 19 40  1  0  0  0  0
 20 21  2  0  0  0  0
 20 25  1  0  0  0  0
 21 22  1  0  0  0  0
 22 23  2  0  0  0  0
 22 41  1  0  0  0  0
 23 24  1  0  0  0  0
 23 42  1  0  0  0  0
 24 25  2  0  0  0  0
 24 43  1  0  0  0  0
 26 27  2  0  0  0  0
M  CHG  1   5   1
M  END
