../datasets/input/BACE/poses/17/ligand.pdb
 OpenBabel02191913393D

 44 47  0  0  1  0  0  0  0  0999 V2000
   11.7850   -2.3450    1.0630 C   0  0  0  0  0  0  0  0  0  0  0  0
   13.1440   -2.6060    0.5700 N   0  0  0  0  0  0  0  0  0  0  0  0
   14.2740   -2.5300    1.2880 C   0  0  1  0  0  0  0  0  0  0  0  0
   14.3690   -2.2900    2.6000 N   0  0  0  0  0  0  0  0  0  0  0  0
   15.3480   -2.7490    0.5310 N   0  3  0  0  0  0  0  0  0  0  0  0
   15.0180   -3.0660   -0.8500 C   0  0  1  0  0  0  0  0  0  0  0  0
   15.5550   -1.9960   -1.8190 C   0  0  0  0  0  0  0  0  0  0  0  0
   16.2100   -2.3560   -3.0210 C   0  0  0  0  0  0  0  0  0  0  0  0
   16.6300   -1.3670   -3.9220 C   0  0  0  0  0  0  0  0  0  0  0  0
   16.3790   -0.0110   -3.6500 C   0  0  0  0  0  0  0  0  0  0  0  0
   15.7540    0.3920   -2.4510 C   0  0  0  0  0  0  0  0  0  0  0  0
   15.4600    1.8220   -2.1930 C   0  0  0  0  0  0  0  0  0  0  0  0
   15.1110    2.6870   -3.2560 C   0  0  0  0  0  0  0  0  0  0  0  0
   14.7530    4.0290   -3.0230 C   0  0  0  0  0  0  0  0  0  0  0  0
   14.7530    4.5400   -1.7150 C   0  0  0  0  0  0  0  0  0  0  0  0
   15.1250    3.7080   -0.6440 C   0  0  0  0  0  0  0  0  0  0  0  0
   15.1350    4.2480    0.7040 C   0  0  0  0  0  0  0  0  0  0  0  0
   15.1440    4.6820    1.7760 N   0  0  0  0  0  0  0  0  0  0  0  0
   15.4760    2.3610   -0.8840 C   0  0  0  0  0  0  0  0  0  0  0  0
   15.3690   -0.6170   -1.5380 C   0  0  0  0  0  0  0  0  0  0  0  0
   15.5920   -4.4670   -1.1260 C   0  0  0  0  0  0  0  0  0  0  0  0
   14.9500   -5.7530   -0.6410 C   0  0  0  0  0  0  0  0  0  0  0  0
   15.0110   -5.4510   -2.1180 C   0  0  0  0  0  0  0  0  0  0  0  0
   13.4790   -2.9640   -0.7730 C   0  0  0  0  0  0  0  0  0  0  0  0
   12.6530   -3.1190   -1.6780 O   0  0  0  0  0  0  0  0  0  0  0  0
   11.6560   -2.7470    2.0690 H   0  0  0  0  0  0  0  0  0  0  0  0
   11.6120   -1.2700    1.0970 H   0  0  0  0  0  0  0  0  0  0  0  0
   11.0290   -2.7930    0.4170 H   0  0  0  0  0  0  0  0  0  0  0  0
   13.5880   -2.0400    3.2030 H   0  0  0  0  0  0  0  0  0  0  0  0
   16.3110   -2.7410    0.8720 H   0  0  0  0  0  0  0  0  0  0  0  0
   16.3940   -3.3860   -3.2910 H   0  0  0  0  0  0  0  0  0  0  0  0
   17.1250   -1.6500   -4.8420 H   0  0  0  0  0  0  0  0  0  0  0  0
   16.6710    0.7240   -4.3840 H   0  0  0  0  0  0  0  0  0  0  0  0
   15.0740    2.3090   -4.2680 H   0  0  0  0  0  0  0  0  0  0  0  0
   14.4550    4.6660   -3.8430 H   0  0  0  0  0  0  0  0  0  0  0  0
   14.4630    5.5670   -1.5360 H   0  0  0  0  0  0  0  0  0  0  0  0
   15.7580    1.7350   -0.0520 H   0  0  0  0  0  0  0  0  0  0  0  0
   14.8680   -0.3210   -0.6280 H   0  0  0  0  0  0  0  0  0  0  0  0
   16.6770   -4.4710   -1.0660 H   0  0  0  0  0  0  0  0  0  0  0  0
   15.6120   -6.5320   -0.2670 H   0  0  0  0  0  0  0  0  0  0  0  0
   13.9720   -5.7130   -0.1650 H   0  0  0  0  0  0  0  0  0  0  0  0
   14.0740   -5.2080   -2.6030 H   0  0  0  0  0  0  0  0  0  0  0  0
   15.7100   -6.0230   -2.7270 H   0  0  0  0  0  0  0  0  0  0  0  0
   15.2900   -2.2840    3.0380 H   0  0  0  0  0  0  0  0  0  0  0  0
  1  2  1  0  0  0  0
  1 26  1  0  0  0  0
  1 27  1  0  0  0  0
  1 28  1  0  0  0  0
  2  3  1  0  0  0  0
  2 24  1  0  0  0  0
  3  4  1  1  0  0  0
  3  5  1  0  0  0  0
  4 29  1  0  0  0  0
  4 44  1  0  0  0  0
  5  6  1  0  0  0  0
  5 30  1  0  0  0  0
  6  7  1  6  0  0  0
  6 21  1  0  0  0  0
  6 24  1  0  0  0  0
  7  8  2  0  0  0  0
  7 20  1  0  0  0  0
  8  9  1  0  0  0  0
  8 31  1  0  0  0  0
  9 10  2  0  0  0  0
  9 32  1  0  0  0  0
 10 11  1  0  0  0  0
 10 33  1  0  0  0  0
 11 12  1  0  0  0  0
 11 20  2  0  0  0  0
 12 13  2  0  0  0  0
 12 19  1  0  0  0  0
 13 14  1  0  0  0  0
 13 34  1  0  0  0  0
 14 15  2  0  0  0  0
 14 35  1  0  0  0  0
 15 16  1  0  0  0  0
 15 36  1  0  0  0  0
 16 17  1  0  0  0  0
 16 19  2  0  0  0  0
 17 18  3  0  0  0  0
 19 37  1  0  0  0  0
 20 38  1  0  0  0  0
 21 22  1  0  0  0  0
 21 23  1  0  0  0  0
 21 39  1  0  0  0  0
 22 23  1  0  0  0  0
 22 40  1  0  0  0  0
 22 41  1  0  0  0  0
 23 42  1  0  0  0  0
 23 43  1  0  0  0  0
 24 25  2  0  0  0  0
M  CHG  1   5   1
M  END
