@<TRIPOS>MOLECULE
../datasets/input/BACE/poses/17/ligand.pdb
 44 47 0 0 0
SMALL
GASTEIGER

@<TRIPOS>ATOM
      1  C         11.7850   -2.3450    1.0630 C.3     0  UNK0        0.0103
      2  N         13.1440   -2.6060    0.5700 N.am    0  UNK0       -0.2332
      3  C         14.2740   -2.5300    1.2880 C.3     0  UNK0        0.2305
      4  N         14.3690   -2.2900    2.6000 N.3     0  UNK0       -0.2608
      5  N         15.3480   -2.7490    0.5310 N.4     0  UNK0        0.3786
      6  C         15.0180   -3.0660   -0.8500 C.3     0  UNK0        0.1283
      7  C         15.5550   -1.9960   -1.8190 C.ar    0  UNK0        0.0148
      8  C         16.2100   -2.3560   -3.0210 C.ar    0  UNK0       -0.0524
      9  C         16.6300   -1.3670   -3.9220 C.ar    0  UNK0       -0.0607
     10  C         16.3790   -0.0110   -3.6500 C.ar    0  UNK0       -0.0540
     11  C         15.7540    0.3920   -2.4510 C.ar    0  UNK0       -0.0174
     12  C         15.4600    1.8220   -2.1930 C.ar    0  UNK0       -0.0167
     13  C         15.1110    2.6870   -3.2560 C.ar    0  UNK0       -0.0540
     14  C         14.7530    4.0290   -3.0230 C.ar    0  UNK0       -0.0600
     15  C         14.7530    4.5400   -1.7150 C.ar    0  UNK0       -0.0443
     16  C         15.1250    3.7080   -0.6440 C.ar    0  UNK0        0.0523
     17  C         15.1350    4.2480    0.7040 C.1     0  UNK0        0.0992
     18  N         15.1440    4.6820    1.7760 N.1     0  UNK0       -0.1909
     19  C         15.4760    2.3610   -0.8840 C.ar    0  UNK0       -0.0366
     20  C         15.3690   -0.6170   -1.5380 C.ar    0  UNK0       -0.0447
     21  C         15.5920   -4.4670   -1.1260 C.3     0  UNK0        0.0197
     22  C         14.9500   -5.7530   -0.6410 C.3     0  UNK0       -0.0435
     23  C         15.0110   -5.4510   -2.1180 C.3     0  UNK0       -0.0435
     24  C         13.4790   -2.9640   -0.7730 C.2     0  UNK0        0.2788
     25  O         12.6530   -3.1190   -1.6780 O.2     0  UNK0       -0.2684
     26  H         11.6560   -2.7470    2.0690 H       0  UNK0        0.0431
     27  H         11.6120   -1.2700    1.0970 H       0  UNK0        0.0431
     28  H         11.0290   -2.7930    0.4170 H       0  UNK0        0.0431
     29  H         13.5880   -2.0400    3.2030 H       0  UNK0        0.1257
     30  H         16.3110   -2.7410    0.8720 H       0  UNK0        0.2427
     31  H         16.3940   -3.3860   -3.2910 H       0  UNK0        0.0622
     32  H         17.1250   -1.6500   -4.8420 H       0  UNK0        0.0618
     33  H         16.6710    0.7240   -4.3840 H       0  UNK0        0.0624
     34  H         15.0740    2.3090   -4.2680 H       0  UNK0        0.0624
     35  H         14.4550    4.6660   -3.8430 H       0  UNK0        0.0618
     36  H         14.4630    5.5670   -1.5360 H       0  UNK0        0.0630
     37  H         15.7580    1.7350   -0.0520 H       0  UNK0        0.0636
     38  H         14.8680   -0.3210   -0.6280 H       0  UNK0        0.0628
     39  H         16.6770   -4.4710   -1.0660 H       0  UNK0        0.0368
     40  H         15.6120   -6.5320   -0.2670 H       0  UNK0        0.0270
     41  H         13.9720   -5.7130   -0.1650 H       0  UNK0        0.0270
     42  H         14.0740   -5.2080   -2.6030 H       0  UNK0        0.0270
     43  H         15.7100   -6.0230   -2.7270 H       0  UNK0        0.0270
     44  H         15.2900   -2.2840    3.0380 H       0  UNK0        0.1257
@<TRIPOS>BOND
     1     1     2    1
     2     1    26    1
     3     1    27    1
     4     1    28    1
     5     2     3    1
     6     2    24   am
     7     3     4    1
     8     3     5    1
     9     4    29    1
    10     4    44    1
    11     5     6    1
    12     5    30    1
    13     6     7    1
    14     6    21    1
    15     6    24    1
    16     7     8   ar
    17     7    20   ar
    18     8     9   ar
    19     8    31    1
    20     9    10   ar
    21     9    32    1
    22    10    11   ar
    23    10    33    1
    24    11    12    1
    25    11    20   ar
    26    12    13   ar
    27    12    19   ar
    28    13    14   ar
    29    13    34    1
    30    14    15   ar
    31    14    35    1
    32    15    16   ar
    33    15    36    1
    34    16    17    1
    35    16    19   ar
    36    17    18    3
    37    19    37    1
    38    20    38    1
    39    21    22    1
    40    21    23    1
    41    21    39    1
    42    22    23    1
    43    22    40    1
    44    22    41    1
    45    23    42    1
    46    23    43    1
    47    24    25    2
