@<TRIPOS>MOLECULE
../fesetup/poses/25/ligand.pdb
 50 53 0 0 0
SMALL
GASTEIGER

@<TRIPOS>ATOM
      1  C         14.8900    4.8690    1.3570 C.3     0  UNK0        0.0788
      2  O         15.4910    3.6590    0.9340 O.3     0  UNK0       -0.4951
      3  C         15.4560    3.3610   -0.4090 C.ar    0  UNK0        0.1207
      4  C         15.2030    4.3050   -1.4280 C.ar    0  UNK0       -0.0199
      5  C         15.2290    3.9020   -2.7750 C.ar    0  UNK0       -0.0577
      6  C         15.4670    2.5540   -3.1150 C.ar    0  UNK0       -0.0538
      7  C         15.6670    1.5800   -2.1110 C.ar    0  UNK0       -0.0144
      8  C         15.7990    0.1370   -2.4300 C.ar    0  UNK0       -0.0173
      9  C         16.3440   -0.3090   -3.6510 C.ar    0  UNK0       -0.0540
     10  C         16.4510   -1.6810   -3.9430 C.ar    0  UNK0       -0.0607
     11  C         15.9730   -2.6430   -3.0350 C.ar    0  UNK0       -0.0520
     12  C         15.3930   -2.2320   -1.8120 C.ar    0  UNK0        0.0193
     13  C         14.8070   -3.2360   -0.8030 C.3     0  UNK0        0.1513
     14  C         15.1480   -4.7200   -1.0800 C.ar    0  UNK0        0.0187
     15  C         16.3640   -5.2430   -0.5910 C.ar    0  UNK0       -0.0521
     16  C         16.7310   -6.5830   -0.7930 C.ar    0  UNK0       -0.0613
     17  C         15.8590   -7.4490   -1.4650 C.ar    0  UNK0       -0.0617
     18  C         14.6430   -6.9570   -1.9660 C.ar    0  UNK0       -0.0613
     19  C         14.2970   -5.6020   -1.7880 C.ar    0  UNK0       -0.0521
     20  N         15.2300   -2.9020    0.5590 N.4     0  UNK0        0.3817
     21  C         14.2090   -2.6080    1.3610 C.3     0  UNK0        0.2310
     22  N         14.3830   -2.3400    2.6580 N.3     0  UNK0       -0.2608
     23  N         13.0410   -2.6280    0.7030 N.am    0  UNK0       -0.2329
     24  C         11.7210   -2.2790    1.2430 C.3     0  UNK0        0.0103
     25  C         13.2870   -2.9900   -0.6540 C.2     0  UNK0        0.2833
     26  O         12.4100   -3.0490   -1.5240 O.2     0  UNK0       -0.2680
     27  C         15.3370   -0.8450   -1.5240 C.ar    0  UNK0       -0.0443
     28  C         15.6870    2.0220   -0.7700 C.ar    0  UNK0       -0.0122
     29  H         14.8790    4.9110    2.4460 H       0  UNK0        0.0660
     30  H         15.4280    5.7410    0.9980 H       0  UNK0        0.0660
     31  H         13.8630    4.9310    1.0040 H       0  UNK0        0.0660
     32  H         15.0040    5.3420   -1.2030 H       0  UNK0        0.0654
     33  H         15.0420    4.6340   -3.5450 H       0  UNK0        0.0619
     34  H         15.4460    2.2650   -4.1550 H       0  UNK0        0.0624
     35  H         16.6910    0.4070   -4.3790 H       0  UNK0        0.0624
     36  H         16.8950   -1.9890   -4.8790 H       0  UNK0        0.0618
     37  H         16.0550   -3.6880   -3.3000 H       0  UNK0        0.0623
     38  H         17.0280   -4.6140   -0.0260 H       0  UNK0        0.0623
     39  H         17.6720   -6.9470   -0.4050 H       0  UNK0        0.0618
     40  H         16.1250   -8.4850   -1.5760 H       0  UNK0        0.0618
     41  H         13.9720   -7.6250   -2.4860 H       0  UNK0        0.0618
     42  H         13.3590   -5.2650   -2.1900 H       0  UNK0        0.0623
     43  H         16.2090   -2.9000    0.8450 H       0  UNK0        0.2432
     44  H         13.6430   -2.0450    3.2920 H       0  UNK0        0.1257
     45  H         10.9260   -2.8240    0.7340 H       0  UNK0        0.0431
     46  H         11.6590   -2.5070    2.3070 H       0  UNK0        0.0431
     47  H         11.5440   -1.2130    1.1040 H       0  UNK0        0.0431
     48  H         14.8870   -0.5180   -0.5990 H       0  UNK0        0.0629
     49  H         15.8630    1.3170    0.0230 H       0  UNK0        0.0660
     50  H         15.3280   -2.3480    3.0470 H       0  UNK0        0.1257
@<TRIPOS>BOND
     1     1     2    1
     2     1    29    1
     3     1    30    1
     4     1    31    1
     5     2     3    1
     6     3     4   ar
     7     3    28   ar
     8     4     5   ar
     9     4    32    1
    10     5     6   ar
    11     5    33    1
    12     6     7   ar
    13     6    34    1
    14     7     8    1
    15     7    28   ar
    16     8     9   ar
    17     8    27   ar
    18     9    10   ar
    19     9    35    1
    20    10    11   ar
    21    10    36    1
    22    11    12   ar
    23    11    37    1
    24    12    13    1
    25    12    27   ar
    26    13    14    1
    27    13    20    1
    28    13    25    1
    29    14    15   ar
    30    14    19   ar
    31    15    16   ar
    32    15    38    1
    33    16    17   ar
    34    16    39    1
    35    17    18   ar
    36    17    40    1
    37    18    19   ar
    38    18    41    1
    39    19    42    1
    40    20    21    1
    41    20    43    1
    42    21    22    1
    43    21    23    1
    44    22    44    1
    45    22    50    1
    46    23    24    1
    47    23    25   am
    48    24    45    1
    49    24    46    1
    50    24    47    1
    51    25    26    2
    52    27    48    1
    53    28    49    1
