@<TRIPOS>MOLECULE
../datasets/input/BACE/poses/28/ligand.pdb
 48 51 0 0 0
SMALL
GASTEIGER

@<TRIPOS>ATOM
      1  C         15.2080    4.1240    0.7010 C.3     0  UNK0       -0.0383
      2  C         15.3090    3.5220   -0.6860 C.ar    0  UNK0       -0.0318
      3  C         15.1280    4.3250   -1.8220 C.ar    0  UNK0        0.0305
      4  N         15.2150    3.8470   -3.0720 N.ar    0  UNK0       -0.2624
      5  C         15.4530    2.5310   -3.2370 C.ar    0  UNK0        0.0353
      6  C         15.6150    1.6090   -2.1790 C.ar    0  UNK0        0.0005
      7  C         15.7870    0.1570   -2.4350 C.ar    0  UNK0       -0.0159
      8  C         16.3710   -0.3090   -3.6320 C.ar    0  UNK0       -0.0540
      9  C         16.5070   -1.6830   -3.8950 C.ar    0  UNK0       -0.0607
     10  C         16.0170   -2.6320   -2.9820 C.ar    0  UNK0       -0.0520
     11  C         15.4030   -2.2060   -1.7810 C.ar    0  UNK0        0.0193
     12  C         14.8030   -3.2090   -0.7800 C.3     0  UNK0        0.1513
     13  C         15.1320   -4.6950   -1.0610 C.ar    0  UNK0        0.0187
     14  C         14.2710   -5.5710   -1.7660 C.ar    0  UNK0       -0.0521
     15  C         14.6070   -6.9270   -1.9480 C.ar    0  UNK0       -0.0613
     16  C         15.8240   -7.4270   -1.4570 C.ar    0  UNK0       -0.0617
     17  C         16.7060   -6.5690   -0.7890 C.ar    0  UNK0       -0.0613
     18  C         16.3490   -5.2260   -0.5820 C.ar    0  UNK0       -0.0521
     19  N         15.2230   -2.8830    0.5820 N.4     0  UNK0        0.3817
     20  C         14.1990   -2.6020    1.3850 C.3     0  UNK0        0.2310
     21  N         14.3720   -2.3500    2.6840 N.3     0  UNK0       -0.2608
     22  N         13.0320   -2.6160    0.7250 N.am    0  UNK0       -0.2329
     23  C         11.7080   -2.2820    1.2640 C.3     0  UNK0        0.0103
     24  C         13.2840   -2.9560   -0.6370 C.2     0  UNK0        0.2833
     25  O         12.4100   -2.9970   -1.5120 O.2     0  UNK0       -0.2680
     26  C         15.3260   -0.8130   -1.5150 C.ar    0  UNK0       -0.0443
     27  C         15.5650    2.1500   -0.8760 C.ar    0  UNK0       -0.0482
     28  H         16.0320    3.7900    1.3340 H       0  UNK0        0.0278
     29  H         15.2300    5.2140    0.6620 H       0  UNK0        0.0278
     30  H         14.2700    3.8300    1.1670 H       0  UNK0        0.0278
     31  H         14.9150    5.3800   -1.7270 H       0  UNK0        0.0832
     32  H         15.4710    2.2000   -4.2640 H       0  UNK0        0.0836
     33  H         16.7220    0.3880   -4.3750 H       0  UNK0        0.0624
     34  H         16.9760   -2.0020   -4.8150 H       0  UNK0        0.0618
     35  H         16.1170   -3.6800   -3.2290 H       0  UNK0        0.0623
     36  H         13.3310   -5.2280   -2.1610 H       0  UNK0        0.0623
     37  H         13.9280   -7.5910   -2.4620 H       0  UNK0        0.0618
     38  H         16.0820   -8.4660   -1.5740 H       0  UNK0        0.0618
     39  H         17.6490   -6.9380   -0.4110 H       0  UNK0        0.0618
     40  H         17.0230   -4.6020   -0.0250 H       0  UNK0        0.0623
     41  H         16.2020   -2.8880    0.8700 H       0  UNK0        0.2432
     42  H         13.6300   -2.0610    3.3200 H       0  UNK0        0.1257
     43  H         10.9230   -2.8520    0.7660 H       0  UNK0        0.0431
     44  H         11.6540   -2.4940    2.3310 H       0  UNK0        0.0431
     45  H         11.5090   -1.2230    1.1070 H       0  UNK0        0.0431
     46  H         14.8550   -0.4760   -0.6030 H       0  UNK0        0.0629
     47  H         15.7150    1.5140   -0.0200 H       0  UNK0        0.0627
     48  H         15.3160   -2.3600    3.0730 H       0  UNK0        0.1257
@<TRIPOS>BOND
     1     1     2    1
     2     1    28    1
     3     1    29    1
     4     1    30    1
     5     2     3   ar
     6     2    27   ar
     7     3     4   ar
     8     3    31    1
     9     4     5   ar
    10     5     6   ar
    11     5    32    1
    12     6     7    1
    13     6    27   ar
    14     7     8   ar
    15     7    26   ar
    16     8     9   ar
    17     8    33    1
    18     9    10   ar
    19     9    34    1
    20    10    11   ar
    21    10    35    1
    22    11    12    1
    23    11    26   ar
    24    12    13    1
    25    12    19    1
    26    12    24    1
    27    13    14   ar
    28    13    18   ar
    29    14    15   ar
    30    14    36    1
    31    15    16   ar
    32    15    37    1
    33    16    17   ar
    34    16    38    1
    35    17    18   ar
    36    17    39    1
    37    18    40    1
    38    19    20    1
    39    19    41    1
    40    20    21    1
    41    20    22    1
    42    21    42    1
    43    21    48    1
    44    22    23    1
    45    22    24   am
    46    23    43    1
    47    23    44    1
    48    23    45    1
    49    24    25    2
    50    26    46    1
    51    27    47    1
