../datasets/input/BACE/poses/28/ligand.pdb
 OpenBabel02191913393D

 48 51  0  0  1  0  0  0  0  0999 V2000
   15.2080    4.1240    0.7010 C   0  0  0  0  0  0  0  0  0  0  0  0
   15.3090    3.5220   -0.6860 C   0  0  0  0  0  0  0  0  0  0  0  0
   15.1280    4.3250   -1.8220 C   0  0  0  0  0  0  0  0  0  0  0  0
   15.2150    3.8470   -3.0720 N   0  0  0  0  0  0  0  0  0  0  0  0
   15.4530    2.5310   -3.2370 C   0  0  0  0  0  0  0  0  0  0  0  0
   15.6150    1.6090   -2.1790 C   0  0  0  0  0  0  0  0  0  0  0  0
   15.7870    0.1570   -2.4350 C   0  0  0  0  0  0  0  0  0  0  0  0
   16.3710   -0.3090   -3.6320 C   0  0  0  0  0  0  0  0  0  0  0  0
   16.5070   -1.6830   -3.8950 C   0  0  0  0  0  0  0  0  0  0  0  0
   16.0170   -2.6320   -2.9820 C   0  0  0  0  0  0  0  0  0  0  0  0
   15.4030   -2.2060   -1.7810 C   0  0  0  0  0  0  0  0  0  0  0  0
   14.8030   -3.2090   -0.7800 C   0  0  1  0  0  0  0  0  0  0  0  0
   15.1320   -4.6950   -1.0610 C   0  0  0  0  0  0  0  0  0  0  0  0
   14.2710   -5.5710   -1.7660 C   0  0  0  0  0  0  0  0  0  0  0  0
   14.6070   -6.9270   -1.9480 C   0  0  0  0  0  0  0  0  0  0  0  0
   15.8240   -7.4270   -1.4570 C   0  0  0  0  0  0  0  0  0  0  0  0
   16.7060   -6.5690   -0.7890 C   0  0  0  0  0  0  0  0  0  0  0  0
   16.3490   -5.2260   -0.5820 C   0  0  0  0  0  0  0  0  0  0  0  0
   15.2230   -2.8830    0.5820 N   0  3  0  0  0  0  0  0  0  0  0  0
   14.1990   -2.6020    1.3850 C   0  0  2  0  0  0  0  0  0  0  0  0
   14.3720   -2.3500    2.6840 N   0  0  0  0  0  0  0  0  0  0  0  0
   13.0320   -2.6160    0.7250 N   0  0  0  0  0  0  0  0  0  0  0  0
   11.7080   -2.2820    1.2640 C   0  0  0  0  0  0  0  0  0  0  0  0
   13.2840   -2.9560   -0.6370 C   0  0  0  0  0  0  0  0  0  0  0  0
   12.4100   -2.9970   -1.5120 O   0  0  0  0  0  0  0  0  0  0  0  0
   15.3260   -0.8130   -1.5150 C   0  0  0  0  0  0  0  0  0  0  0  0
   15.5650    2.1500   -0.8760 C   0  0  0  0  0  0  0  0  0  0  0  0
   16.0320    3.7900    1.3340 H   0  0  0  0  0  0  0  0  0  0  0  0
   15.2300    5.2140    0.6620 H   0  0  0  0  0  0  0  0  0  0  0  0
   14.2700    3.8300    1.1670 H   0  0  0  0  0  0  0  0  0  0  0  0
   14.9150    5.3800   -1.7270 H   0  0  0  0  0  0  0  0  0  0  0  0
   15.4710    2.2000   -4.2640 H   0  0  0  0  0  0  0  0  0  0  0  0
   16.7220    0.3880   -4.3750 H   0  0  0  0  0  0  0  0  0  0  0  0
   16.9760   -2.0020   -4.8150 H   0  0  0  0  0  0  0  0  0  0  0  0
   16.1170   -3.6800   -3.2290 H   0  0  0  0  0  0  0  0  0  0  0  0
   13.3310   -5.2280   -2.1610 H   0  0  0  0  0  0  0  0  0  0  0  0
   13.9280   -7.5910   -2.4620 H   0  0  0  0  0  0  0  0  0  0  0  0
   16.0820   -8.4660   -1.5740 H   0  0  0  0  0  0  0  0  0  0  0  0
   17.6490   -6.9380   -0.4110 H   0  0  0  0  0  0  0  0  0  0  0  0
   17.0230   -4.6020   -0.0250 H   0  0  0  0  0  0  0  0  0  0  0  0
   16.2020   -2.8880    0.8700 H   0  0  0  0  0  0  0  0  0  0  0  0
   13.6300   -2.0610    3.3200 H   0  0  0  0  0  0  0  0  0  0  0  0
   10.9230   -2.8520    0.7660 H   0  0  0  0  0  0  0  0  0  0  0  0
   11.6540   -2.4940    2.3310 H   0  0  0  0  0  0  0  0  0  0  0  0
   11.5090   -1.2230    1.1070 H   0  0  0  0  0  0  0  0  0  0  0  0
   14.8550   -0.4760   -0.6030 H   0  0  0  0  0  0  0  0  0  0  0  0
   15.7150    1.5140   -0.0200 H   0  0  0  0  0  0  0  0  0  0  0  0
   15.3160   -2.3600    3.0730 H   0  0  0  0  0  0  0  0  0  0  0  0
  1  2  1  0  0  0  0
  1 28  1  0  0  0  0
  1 29  1  0  0  0  0
  1 30  1  0  0  0  0
  2  3  2  0  0  0  0
  2 27  1  0  0  0  0
  3  4  1  0  0  0  0
  3 31  1  0  0  0  0
  4  5  2  0  0  0  0
  5  6  1  0  0  0  0
  5 32  1  0  0  0  0
  6  7  1  0  0  0  0
  6 27  2  0  0  0  0
  7  8  2  0  0  0  0
  7 26  1  0  0  0  0
  8  9  1  0  0  0  0
  8 33  1  0  0  0  0
  9 10  2  0  0  0  0
  9 34  1  0  0  0  0
 10 11  1  0  0  0  0
 10 35  1  0  0  0  0
 11 26  2  0  0  0  0
 12 11  1  6  0  0  0
 12 13  1  0  0  0  0
 12 19  1  0  0  0  0
 12 24  1  0  0  0  0
 13 14  2  0  0  0  0
 13 18  1  0  0  0  0
 14 15  1  0  0  0  0
 14 36  1  0  0  0  0
 15 16  2  0  0  0  0
 15 37  1  0  0  0  0
 16 17  1  0  0  0  0
 16 38  1  0  0  0  0
 17 18  2  0  0  0  0
 17 39  1  0  0  0  0
 18 40  1  0  0  0  0
 19 20  1  0  0  0  0
 19 41  1  0  0  0  0
 20 21  1  1  0  0  0
 20 22  1  0  0  0  0
 21 42  1  0  0  0  0
 21 48  1  0  0  0  0
 22 23  1  0  0  0  0
 22 24  1  0  0  0  0
 23 43  1  0  0  0  0
 23 44  1  0  0  0  0
 23 45  1  0  0  0  0
 24 25  2  0  0  0  0
 26 46  1  0  0  0  0
 27 47  1  0  0  0  0
M  CHG  1  19   1
M  END
