@<TRIPOS>MOLECULE
../fesetup/poses/18/ligand.pdb
 47 50 0 0 0
SMALL
GASTEIGER

@<TRIPOS>ATOM
      1  C         15.3150    5.5060    2.8950 C.3     0  UNK0       -0.0022
      2  C         15.2760    4.6940    1.6710 C.1     0  UNK0       -0.1003
      3  C         15.2920    4.0730    0.6200 C.1     0  UNK0       -0.0650
      4  C         15.3510    3.4490   -0.6910 C.ar    0  UNK0        0.0436
      5  C         15.1650    4.2390   -1.8340 C.ar    0  UNK0        0.0430
      6  N         15.2380    3.7480   -3.0810 N.ar    0  UNK0       -0.2614
      7  C         15.4740    2.4310   -3.2310 C.ar    0  UNK0        0.0353
      8  C         15.6500    1.5170   -2.1650 C.ar    0  UNK0        0.0014
      9  C         15.8250    0.0640   -2.4270 C.ar    0  UNK0       -0.0159
     10  C         16.3440   -0.3780   -3.6610 C.ar    0  UNK0       -0.0540
     11  C         16.4140   -1.7400   -3.9770 C.ar    0  UNK0       -0.0607
     12  C         15.9410   -2.7040   -3.0750 C.ar    0  UNK0       -0.0524
     13  C         15.4460   -2.3240   -1.8040 C.ar    0  UNK0        0.0148
     14  C         14.8510   -3.3200   -0.7680 C.3     0  UNK0        0.1283
     15  C         15.0820   -4.8500   -0.8610 C.3     0  UNK0        0.0197
     16  C         14.8180   -5.7090   -2.0750 C.3     0  UNK0       -0.0435
     17  C         16.2250   -5.5700   -1.5440 C.3     0  UNK0       -0.0435
     18  N         15.2670   -2.9520    0.5810 N.4     0  UNK0        0.3786
     19  C         14.2390   -2.5910    1.3480 C.3     0  UNK0        0.2305
     20  N         14.3970   -2.2860    2.6380 N.3     0  UNK0       -0.2608
     21  N         13.0820   -2.6030    0.6690 N.am    0  UNK0       -0.2332
     22  C         11.7630   -2.2010    1.1740 C.3     0  UNK0        0.0103
     23  C         13.3390   -3.0540   -0.6600 C.2     0  UNK0        0.2788
     24  O         12.4760   -3.1860   -1.5330 O.2     0  UNK0       -0.2684
     25  C         15.4220   -0.9300   -1.5000 C.ar    0  UNK0       -0.0446
     26  C         15.6010    2.0710   -0.8640 C.ar    0  UNK0       -0.0357
     27  H         14.7230    6.4090    2.7700 H       0  UNK0        0.0362
     28  H         14.9100    4.9400    3.7300 H       0  UNK0        0.0362
     29  H         16.3440    5.7820    3.1250 H       0  UNK0        0.0362
     30  H         14.9640    5.2980   -1.7520 H       0  UNK0        0.0842
     31  H         15.4800    2.0980   -4.2570 H       0  UNK0        0.0836
     32  H         16.6790    0.3260   -4.4060 H       0  UNK0        0.0624
     33  H         16.8080   -2.0380   -4.9380 H       0  UNK0        0.0618
     34  H         15.9690   -3.7180   -3.4240 H       0  UNK0        0.0622
     35  H         14.7740   -5.3360    0.0640 H       0  UNK0        0.0368
     36  H         14.3150   -6.6620   -1.9190 H       0  UNK0        0.0270
     37  H         14.5670   -5.2130   -3.0010 H       0  UNK0        0.0270
     38  H         16.9320   -5.0170   -2.1450 H       0  UNK0        0.0270
     39  H         16.6530   -6.4220   -1.0200 H       0  UNK0        0.0270
     40  H         16.2430   -2.9600    0.8790 H       0  UNK0        0.2427
     41  H         13.6500   -1.9780    3.2590 H       0  UNK0        0.1257
     42  H         10.9580   -2.6950    0.6300 H       0  UNK0        0.0431
     43  H         11.6590   -2.4480    2.2300 H       0  UNK0        0.0431
     44  H         11.6440   -1.1250    1.0540 H       0  UNK0        0.0431
     45  H         15.0150   -0.6040   -0.5540 H       0  UNK0        0.0629
     46  H         15.7570    1.4440   -0.0040 H       0  UNK0        0.0637
     47  H         15.3340   -2.3090    3.0440 H       0  UNK0        0.1257
@<TRIPOS>BOND
     1     1     2    1
     2     1    27    1
     3     1    28    1
     4     1    29    1
     5     2     3    3
     6     3     4    1
     7     4     5   ar
     8     4    26   ar
     9     5     6   ar
    10     5    30    1
    11     6     7   ar
    12     7     8   ar
    13     7    31    1
    14     8     9    1
    15     8    26   ar
    16     9    10   ar
    17     9    25   ar
    18    10    11   ar
    19    10    32    1
    20    11    12   ar
    21    11    33    1
    22    12    13   ar
    23    12    34    1
    24    13    14    1
    25    13    25   ar
    26    14    15    1
    27    14    18    1
    28    14    23    1
    29    15    16    1
    30    15    17    1
    31    15    35    1
    32    16    17    1
    33    16    36    1
    34    16    37    1
    35    17    38    1
    36    17    39    1
    37    18    19    1
    38    18    40    1
    39    19    20    1
    40    19    21    1
    41    20    41    1
    42    20    47    1
    43    21    22    1
    44    21    23   am
    45    22    42    1
    46    22    43    1
    47    22    44    1
    48    23    24    2
    49    25    45    1
    50    26    46    1
