@<TRIPOS>MOLECULE
../datasets/input/BACE/poses/32/ligand.pdb
 46 49 0 0 0
SMALL
GASTEIGER

@<TRIPOS>ATOM
      1  C         11.7150   -2.2820    1.2490 C.3     0  UNK0        0.0103
      2  N         13.0380   -2.6190    0.7080 N.am    0  UNK0       -0.2329
      3  C         14.2060   -2.6010    1.3670 C.3     0  UNK0        0.2310
      4  N         14.3790   -2.3440    2.6660 N.3     0  UNK0       -0.2608
      5  N         15.2290   -2.8860    0.5630 N.4     0  UNK0        0.3817
      6  C         14.8080   -3.2130   -0.8000 C.3     0  UNK0        0.1513
      7  C         15.1470   -4.6960   -1.0820 C.ar    0  UNK0        0.0187
      8  C         16.3600   -5.2250   -0.5920 C.ar    0  UNK0       -0.0521
      9  C         16.7230   -6.5670   -0.7950 C.ar    0  UNK0       -0.0613
     10  C         15.8490   -7.4280   -1.4700 C.ar    0  UNK0       -0.0617
     11  C         14.6350   -6.9310   -1.9720 C.ar    0  UNK0       -0.0613
     12  C         14.2940   -5.5760   -1.7920 C.ar    0  UNK0       -0.0521
     13  C         15.3970   -2.2030   -1.8010 C.ar    0  UNK0        0.0193
     14  C         15.9970   -2.6090   -3.0160 C.ar    0  UNK0       -0.0520
     15  C         16.4800   -1.6420   -3.9170 C.ar    0  UNK0       -0.0607
     16  C         16.3580   -0.2710   -3.6260 C.ar    0  UNK0       -0.0540
     17  C         15.7920    0.1720   -2.4130 C.ar    0  UNK0       -0.0174
     18  C         15.6400    1.6150   -2.0980 C.ar    0  UNK0       -0.0179
     19  C         15.4540    2.5840   -3.1120 C.ar    0  UNK0       -0.0540
     20  C         15.2100    3.9360   -2.7900 C.ar    0  UNK0       -0.0612
     21  C         15.1600    4.3480   -1.4470 C.ar    0  UNK0       -0.0617
     22  C         15.3890    3.4120   -0.4270 C.ar    0  UNK0       -0.0612
     23  C         15.6320    2.0660   -0.7580 C.ar    0  UNK0       -0.0540
     24  C         15.3280   -0.8150   -1.5130 C.ar    0  UNK0       -0.0443
     25  C         13.2880   -2.9670   -0.6530 C.2     0  UNK0        0.2833
     26  O         12.4110   -3.0210   -1.5240 O.2     0  UNK0       -0.2680
     27  H         11.5250   -1.2190    1.1030 H       0  UNK0        0.0431
     28  H         10.9270   -2.8410    0.7450 H       0  UNK0        0.0431
     29  H         11.6590   -2.5030    2.3140 H       0  UNK0        0.0431
     30  H         15.3230   -2.3530    3.0550 H       0  UNK0        0.1257
     31  H         16.2070   -2.8880    0.8500 H       0  UNK0        0.2432
     32  H         17.0260   -4.6000   -0.0250 H       0  UNK0        0.0623
     33  H         17.6620   -6.9340   -0.4060 H       0  UNK0        0.0618
     34  H         16.1110   -8.4660   -1.5840 H       0  UNK0        0.0618
     35  H         13.9630   -7.5970   -2.4920 H       0  UNK0        0.0618
     36  H         13.3570   -5.2350   -2.1940 H       0  UNK0        0.0623
     37  H         16.0920   -3.6530   -3.2800 H       0  UNK0        0.0623
     38  H         16.9370   -1.9470   -4.8490 H       0  UNK0        0.0618
     39  H         16.7040    0.4470   -4.3530 H       0  UNK0        0.0624
     40  H         15.4490    2.2870   -4.1500 H       0  UNK0        0.0624
     41  H         15.0280    4.6610   -3.5680 H       0  UNK0        0.0618
     42  H         14.9460    5.3790   -1.2000 H       0  UNK0        0.0618
     43  H         15.3640    3.7200    0.6080 H       0  UNK0        0.0618
     44  H         15.8120    1.3690    0.0410 H       0  UNK0        0.0624
     45  H         14.8640   -0.4920   -0.5940 H       0  UNK0        0.0629
     46  H         13.6370   -2.0530    3.3010 H       0  UNK0        0.1257
@<TRIPOS>BOND
     1     1     2    1
     2     1    27    1
     3     1    28    1
     4     1    29    1
     5     2     3    1
     6     2    25   am
     7     3     4    1
     8     3     5    1
     9     4    30    1
    10     4    46    1
    11     5     6    1
    12     5    31    1
    13     6     7    1
    14     6    13    1
    15     6    25    1
    16     7     8   ar
    17     7    12   ar
    18     8     9   ar
    19     8    32    1
    20     9    10   ar
    21     9    33    1
    22    10    11   ar
    23    10    34    1
    24    11    12   ar
    25    11    35    1
    26    12    36    1
    27    13    14   ar
    28    13    24   ar
    29    14    15   ar
    30    14    37    1
    31    15    16   ar
    32    15    38    1
    33    16    17   ar
    34    16    39    1
    35    17    18    1
    36    17    24   ar
    37    18    19   ar
    38    18    23   ar
    39    19    20   ar
    40    19    40    1
    41    20    21   ar
    42    20    41    1
    43    21    22   ar
    44    21    42    1
    45    22    23   ar
    46    22    43    1
    47    23    44    1
    48    24    45    1
    49    25    26    2
