@<TRIPOS>MOLECULE
../fesetup/poses/22/ligand.pdb
 47 50 0 0 0
SMALL
GASTEIGER

@<TRIPOS>ATOM
      1  C         14.8880    4.7760    1.2260 C.3     0  UNK0        0.0788
      2  O         15.4960    3.5600    0.8390 O.3     0  UNK0       -0.4951
      3  C         15.4240    3.2070   -0.4880 C.ar    0  UNK0        0.1207
      4  C         15.1330    4.1080   -1.5370 C.ar    0  UNK0       -0.0199
      5  C         15.1100    3.6470   -2.8640 C.ar    0  UNK0       -0.0577
      6  C         15.3680    2.2910   -3.1540 C.ar    0  UNK0       -0.0538
      7  C         15.6270    1.3620   -2.1170 C.ar    0  UNK0       -0.0144
      8  C         15.8150   -0.0830   -2.3950 C.ar    0  UNK0       -0.0173
      9  C         16.3950   -0.4890   -3.6080 C.ar    0  UNK0       -0.0540
     10  C         16.5050   -1.8470   -3.9390 C.ar    0  UNK0       -0.0607
     11  C         16.0400   -2.8370   -3.0550 C.ar    0  UNK0       -0.0524
     12  C         15.4690   -2.4840   -1.8060 C.ar    0  UNK0        0.0148
     13  C         14.8770   -3.4950   -0.7770 C.3     0  UNK0        0.1283
     14  C         15.0970   -5.0250   -0.8830 C.3     0  UNK0        0.0197
     15  C         14.8830   -5.8410   -2.1340 C.3     0  UNK0       -0.0435
     16  C         16.2580   -5.7570   -1.5170 C.3     0  UNK0       -0.0435
     17  N         15.2830   -3.1270    0.5770 N.4     0  UNK0        0.3786
     18  C         14.2460   -2.7940    1.3470 C.3     0  UNK0        0.2305
     19  N         14.3920   -2.4610    2.6340 N.3     0  UNK0       -0.2608
     20  N         13.0880   -2.8500    0.6740 N.am    0  UNK0       -0.2332
     21  C         11.7610   -2.5500    1.2230 C.3     0  UNK0        0.0103
     22  C         13.3580   -3.2550   -0.6670 C.2     0  UNK0        0.2788
     23  O         12.4980   -3.3910   -1.5420 O.2     0  UNK0       -0.2684
     24  C         15.3880   -1.0940   -1.5000 C.ar    0  UNK0       -0.0447
     25  C         15.6600    1.8540   -0.7970 C.ar    0  UNK0       -0.0122
     26  H         14.9250    4.8680    2.3120 H       0  UNK0        0.0660
     27  H         15.3960    5.6330    0.7980 H       0  UNK0        0.0660
     28  H         13.8480    4.8040    0.9120 H       0  UNK0        0.0660
     29  H         14.9340    5.1530   -1.3550 H       0  UNK0        0.0654
     30  H         14.8810    4.3380   -3.6570 H       0  UNK0        0.0619
     31  H         15.3230    1.9590   -4.1830 H       0  UNK0        0.0624
     32  H         16.7450    0.2550   -4.3050 H       0  UNK0        0.0624
     33  H         16.9430   -2.1070   -4.8910 H       0  UNK0        0.0618
     34  H         16.1430   -3.8500   -3.3920 H       0  UNK0        0.0622
     35  H         14.7320   -5.5260    0.0160 H       0  UNK0        0.0368
     36  H         14.3440   -6.7810   -2.0390 H       0  UNK0        0.0270
     37  H         14.6920   -5.3030   -3.0520 H       0  UNK0        0.0270
     38  H         17.0100   -5.2040   -2.0610 H       0  UNK0        0.0270
     39  H         16.6260   -6.6390   -0.9950 H       0  UNK0        0.0270
     40  H         16.2620   -3.0820    0.8650 H       0  UNK0        0.2427
     41  H         13.6430   -2.1220    3.2370 H       0  UNK0        0.1257
     42  H         11.8060   -1.5720    1.6900 H       0  UNK0        0.0431
     43  H         11.4780   -3.2830    1.9790 H       0  UNK0        0.0431
     44  H         10.9880   -2.5220    0.4540 H       0  UNK0        0.0431
     45  H         14.9340   -0.7830   -0.5720 H       0  UNK0        0.0628
     46  H         15.8580    1.1780    0.0150 H       0  UNK0        0.0660
     47  H         15.3340   -2.4340    3.0260 H       0  UNK0        0.1257
@<TRIPOS>BOND
     1     1     2    1
     2     1    26    1
     3     1    27    1
     4     1    28    1
     5     2     3    1
     6     3     4   ar
     7     3    25   ar
     8     4     5   ar
     9     4    29    1
    10     5     6   ar
    11     5    30    1
    12     6     7   ar
    13     6    31    1
    14     7     8    1
    15     7    25   ar
    16     8     9   ar
    17     8    24   ar
    18     9    10   ar
    19     9    32    1
    20    10    11   ar
    21    10    33    1
    22    11    12   ar
    23    11    34    1
    24    12    13    1
    25    12    24   ar
    26    13    14    1
    27    13    17    1
    28    13    22    1
    29    14    15    1
    30    14    16    1
    31    14    35    1
    32    15    16    1
    33    15    36    1
    34    15    37    1
    35    16    38    1
    36    16    39    1
    37    17    18    1
    38    17    40    1
    39    18    19    1
    40    18    20    1
    41    19    41    1
    42    19    47    1
    43    20    21    1
    44    20    22   am
    45    21    42    1
    46    21    43    1
    47    21    44    1
    48    22    23    2
    49    24    45    1
    50    25    46    1
