@<TRIPOS>MOLECULE
../fesetup/poses/07/ligand.pdb
 45 48 0 0 0
SMALL
GASTEIGER

@<TRIPOS>ATOM
      1  C         11.7090   -2.3260    1.2760 C.3     0  UNK0        0.0103
      2  N         13.0270   -2.6680    0.7260 N.am    0  UNK0       -0.2329
      3  C         14.2000   -2.6360    1.3740 C.3     0  UNK0        0.2310
      4  N         14.3830   -2.3570    2.6670 N.3     0  UNK0       -0.2608
      5  N         15.2170   -2.9290    0.5650 N.4     0  UNK0        0.3817
      6  C         14.7840   -3.2710   -0.7920 C.3     0  UNK0        0.1513
      7  C         15.1330   -4.7530   -1.0670 C.ar    0  UNK0        0.0187
      8  C         14.2840   -5.6420   -1.7690 C.ar    0  UNK0       -0.0521
      9  C         14.6390   -6.9950   -1.9470 C.ar    0  UNK0       -0.0613
     10  C         15.8630   -7.4750   -1.4530 C.ar    0  UNK0       -0.0617
     11  C         16.7340   -6.6010   -0.7900 C.ar    0  UNK0       -0.0613
     12  C         16.3580   -5.2630   -0.5890 C.ar    0  UNK0       -0.0521
     13  C         15.3570   -2.2700   -1.8110 C.ar    0  UNK0        0.0193
     14  C         15.9110   -2.6870   -3.0440 C.ar    0  UNK0       -0.0520
     15  C         16.3920   -1.7310   -3.9570 C.ar    0  UNK0       -0.0607
     16  C         16.3150   -0.3580   -3.6590 C.ar    0  UNK0       -0.0540
     17  C         15.7900    0.0950   -2.4310 C.ar    0  UNK0       -0.0173
     18  C         15.7050    1.5400   -2.1090 C.ar    0  UNK0       -0.0150
     19  C         15.6970    1.9910   -0.7750 C.ar    0  UNK0       -0.0359
     20  C         15.5590    3.3570   -0.4900 C.ar    0  UNK0        0.0281
     21  N         15.4370    4.2920   -1.4440 N.ar    0  UNK0       -0.2632
     22  C         15.4670    3.8810   -2.7240 C.ar    0  UNK0        0.0281
     23  C         15.5980    2.5330   -3.1040 C.ar    0  UNK0       -0.0359
     24  C         15.3230   -0.8820   -1.5210 C.ar    0  UNK0       -0.0443
     25  C         13.2650   -3.0330   -0.6330 C.2     0  UNK0        0.2833
     26  O         12.3820   -3.0980   -1.4960 O.2     0  UNK0       -0.2680
     27  H         11.5210   -1.2620    1.1330 H       0  UNK0        0.0431
     28  H         10.9140   -2.8800    0.7770 H       0  UNK0        0.0431
     29  H         11.6580   -2.5490    2.3410 H       0  UNK0        0.0431
     30  H         15.3300   -2.3610    3.0510 H       0  UNK0        0.1257
     31  H         16.1980   -2.9240    0.8450 H       0  UNK0        0.2432
     32  H         13.3390   -5.3140   -2.1640 H       0  UNK0        0.0623
     33  H         13.9700   -7.6690   -2.4610 H       0  UNK0        0.0618
     34  H         16.1380   -8.5090   -1.5610 H       0  UNK0        0.0618
     35  H         17.6820   -6.9560   -0.4100 H       0  UNK0        0.0618
     36  H         17.0250   -4.6270   -0.0350 H       0  UNK0        0.0623
     37  H         15.9760   -3.7330   -3.3120 H       0  UNK0        0.0623
     38  H         16.8180   -2.0430   -4.9000 H       0  UNK0        0.0618
     39  H         16.6700    0.3520   -4.3890 H       0  UNK0        0.0624
     40  H         15.8060    1.3010    0.0420 H       0  UNK0        0.0639
     41  H         15.5470    3.7070    0.5320 H       0  UNK0        0.0830
     42  H         15.3630    4.6610   -3.4620 H       0  UNK0        0.0830
     43  H         15.5840    2.2730   -4.1520 H       0  UNK0        0.0639
     44  H         14.8940   -0.5490   -0.5890 H       0  UNK0        0.0629
     45  H         13.6450   -2.0630    3.3050 H       0  UNK0        0.1257
@<TRIPOS>BOND
     1     1     2    1
     2     1    27    1
     3     1    28    1
     4     1    29    1
     5     2     3    1
     6     2    25   am
     7     3     4    1
     8     3     5    1
     9     4    30    1
    10     4    45    1
    11     5     6    1
    12     5    31    1
    13     6     7    1
    14     6    13    1
    15     6    25    1
    16     7     8   ar
    17     7    12   ar
    18     8     9   ar
    19     8    32    1
    20     9    10   ar
    21     9    33    1
    22    10    11   ar
    23    10    34    1
    24    11    12   ar
    25    11    35    1
    26    12    36    1
    27    13    14   ar
    28    13    24   ar
    29    14    15   ar
    30    14    37    1
    31    15    16   ar
    32    15    38    1
    33    16    17   ar
    34    16    39    1
    35    17    18    1
    36    17    24   ar
    37    18    19   ar
    38    18    23   ar
    39    19    20   ar
    40    19    40    1
    41    20    21   ar
    42    20    41    1
    43    21    22   ar
    44    22    23   ar
    45    22    42    1
    46    23    43    1
    47    24    44    1
    48    25    26    2
