../datasets/input/BACE/poses/04/ligand.pdb
 OpenBabel02191913393D

 42 44  0  0  1  0  0  0  0  0999 V2000
   14.8880   -5.3200   -2.2410 C   0  0  0  0  0  0  0  0  0  0  0  0
   15.5150   -4.5190   -1.0880 C   0  0  0  0  0  0  0  0  0  0  0  0
   15.0250   -3.0580   -0.8410 C   0  0  2  0  0  0  0  0  0  0  0  0
   15.5970   -1.9890   -1.7960 C   0  0  0  0  0  0  0  0  0  0  0  0
   16.2810   -2.3330   -2.9860 C   0  0  0  0  0  0  0  0  0  0  0  0
   16.6930   -1.3360   -3.8830 C   0  0  0  0  0  0  0  0  0  0  0  0
   16.4370    0.0160   -3.6010 C   0  0  0  0  0  0  0  0  0  0  0  0
   15.8210    0.4090   -2.3950 C   0  0  0  0  0  0  0  0  0  0  0  0
   15.5580    1.8390   -2.1030 C   0  0  0  0  0  0  0  0  0  0  0  0
   15.2600    2.7490   -3.1450 C   0  0  0  0  0  0  0  0  0  0  0  0
   14.9360    4.0930   -2.8720 C   0  0  0  0  0  0  0  0  0  0  0  0
   14.9160    4.5570   -1.5460 C   0  0  0  0  0  0  0  0  0  0  0  0
   15.2430    3.6820   -0.4990 C   0  0  0  0  0  0  0  0  0  0  0  0
   15.2360    4.2630    1.1250 Cl  0  0  0  0  0  0  0  0  0  0  0  0
   15.5620    2.3370   -0.7790 C   0  0  0  0  0  0  0  0  0  0  0  0
   15.4200   -0.6110   -1.5010 C   0  0  0  0  0  0  0  0  0  0  0  0
   15.3490   -2.7410    0.5440 N   0  3  0  0  0  0  0  0  0  0  0  0
   14.2750   -2.5000    1.2920 C   0  0  2  0  0  0  0  0  0  0  0  0
   14.3660   -2.2680    2.6060 N   0  0  0  0  0  0  0  0  0  0  0  0
   13.1490   -2.5540    0.5670 N   0  0  0  0  0  0  0  0  0  0  0  0
   11.7920   -2.2620    1.0450 C   0  0  0  0  0  0  0  0  0  0  0  0
   13.4890   -2.9220   -0.7720 C   0  0  0  0  0  0  0  0  0  0  0  0
   12.6680   -3.0620   -1.6830 O   0  0  0  0  0  0  0  0  0  0  0  0
   14.9640   -4.8000   -3.1910 H   0  0  0  0  0  0  0  0  0  0  0  0
   15.3880   -6.2810   -2.3610 H   0  0  0  0  0  0  0  0  0  0  0  0
   13.8330   -5.5300   -2.0640 H   0  0  0  0  0  0  0  0  0  0  0  0
   16.5960   -4.5020   -1.2260 H   0  0  0  0  0  0  0  0  0  0  0  0
   15.3700   -5.1060   -0.1790 H   0  0  0  0  0  0  0  0  0  0  0  0
   16.5020   -3.3530   -3.2560 H   0  0  0  0  0  0  0  0  0  0  0  0
   17.1950   -1.6100   -4.8000 H   0  0  0  0  0  0  0  0  0  0  0  0
   16.7290    0.7570   -4.3280 H   0  0  0  0  0  0  0  0  0  0  0  0
   15.2340    2.4070   -4.1690 H   0  0  0  0  0  0  0  0  0  0  0  0
   14.6760    4.7670   -3.6760 H   0  0  0  0  0  0  0  0  0  0  0  0
   14.6490    5.5820   -1.3310 H   0  0  0  0  0  0  0  0  0  0  0  0
   15.8090    1.6830    0.0410 H   0  0  0  0  0  0  0  0  0  0  0  0
   14.9150   -0.3230   -0.5920 H   0  0  0  0  0  0  0  0  0  0  0  0
   16.3100   -2.7380    0.8910 H   0  0  0  0  0  0  0  0  0  0  0  0
   13.5850   -2.0120    3.2060 H   0  0  0  0  0  0  0  0  0  0  0  0
   11.6540   -2.6250    2.0630 H   0  0  0  0  0  0  0  0  0  0  0  0
   11.6290   -1.1850    1.0380 H   0  0  0  0  0  0  0  0  0  0  0  0
   11.0340   -2.7260    0.4120 H   0  0  0  0  0  0  0  0  0  0  0  0
   15.2860   -2.2730    3.0470 H   0  0  0  0  0  0  0  0  0  0  0  0
  1  2  1  0  0  0  0
  1 24  1  0  0  0  0
  1 25  1  0  0  0  0
  1 26  1  0  0  0  0
  2 27  1  0  0  0  0
  2 28  1  0  0  0  0
  3  2  1  6  0  0  0
  3  4  1  0  0  0  0
  3 17  1  0  0  0  0
  3 22  1  0  0  0  0
  4  5  2  0  0  0  0
  4 16  1  0  0  0  0
  5  6  1  0  0  0  0
  5 29  1  0  0  0  0
  6  7  2  0  0  0  0
  6 30  1  0  0  0  0
  7  8  1  0  0  0  0
  7 31  1  0  0  0  0
  8  9  1  0  0  0  0
  8 16  2  0  0  0  0
  9 10  2  0  0  0  0
  9 15  1  0  0  0  0
 10 11  1  0  0  0  0
 10 32  1  0  0  0  0
 11 12  2  0  0  0  0
 11 33  1  0  0  0  0
 12 13  1  0  0  0  0
 12 34  1  0  0  0  0
 13 14  1  0  0  0  0
 13 15  2  0  0  0  0
 15 35  1  0  0  0  0
 16 36  1  0  0  0  0
 17 18  1  0  0  0  0
 17 37  1  0  0  0  0
 18 19  1  1  0  0  0
 18 20  1  0  0  0  0
 19 38  1  0  0  0  0
 19 42  1  0  0  0  0
 20 21  1  0  0  0  0
 20 22  1  0  0  0  0
 21 39  1  0  0  0  0
 21 40  1  0  0  0  0
 21 41  1  0  0  0  0
 22 23  2  0  0  0  0
M  CHG  1  17   1
M  END
