@<TRIPOS>MOLECULE
../datasets/input/BACE/poses/04/ligand.pdb
 42 44 0 0 0
SMALL
GASTEIGER

@<TRIPOS>ATOM
      1  C         14.8880   -5.3200   -2.2410 C.3     0  UNK0       -0.0590
      2  C         15.5150   -4.5190   -1.0880 C.3     0  UNK0        0.0052
      3  C         15.0250   -3.0580   -0.8410 C.3     0  UNK0        0.1252
      4  C         15.5970   -1.9890   -1.7960 C.ar    0  UNK0        0.0145
      5  C         16.2810   -2.3330   -2.9860 C.ar    0  UNK0       -0.0524
      6  C         16.6930   -1.3360   -3.8830 C.ar    0  UNK0       -0.0607
      7  C         16.4370    0.0160   -3.6010 C.ar    0  UNK0       -0.0540
      8  C         15.8210    0.4090   -2.3950 C.ar    0  UNK0       -0.0174
      9  C         15.5580    1.8390   -2.1030 C.ar    0  UNK0       -0.0165
     10  C         15.2600    2.7490   -3.1450 C.ar    0  UNK0       -0.0539
     11  C         14.9360    4.0930   -2.8720 C.ar    0  UNK0       -0.0598
     12  C         14.9160    4.5570   -1.5460 C.ar    0  UNK0       -0.0434
     13  C         15.2430    3.6820   -0.4990 C.ar    0  UNK0        0.0416
     14 Cl         15.2360    4.2630    1.1250 Cl      0  UNK0       -0.0835
     15  C         15.5620    2.3370   -0.7790 C.ar    0  UNK0       -0.0357
     16  C         15.4200   -0.6110   -1.5010 C.ar    0  UNK0       -0.0447
     17  N         15.3490   -2.7410    0.5440 N.4     0  UNK0        0.3784
     18  C         14.2750   -2.5000    1.2920 C.3     0  UNK0        0.2305
     19  N         14.3660   -2.2680    2.6060 N.3     0  UNK0       -0.2608
     20  N         13.1490   -2.5540    0.5670 N.am    0  UNK0       -0.2332
     21  C         11.7920   -2.2620    1.0450 C.3     0  UNK0        0.0103
     22  C         13.4890   -2.9220   -0.7720 C.2     0  UNK0        0.2785
     23  O         12.6680   -3.0620   -1.6830 O.2     0  UNK0       -0.2684
     24  H         14.9640   -4.8000   -3.1910 H       0  UNK0        0.0232
     25  H         15.3880   -6.2810   -2.3610 H       0  UNK0        0.0232
     26  H         13.8330   -5.5300   -2.0640 H       0  UNK0        0.0232
     27  H         16.5960   -4.5020   -1.2260 H       0  UNK0        0.0329
     28  H         15.3700   -5.1060   -0.1790 H       0  UNK0        0.0329
     29  H         16.5020   -3.3530   -3.2560 H       0  UNK0        0.0622
     30  H         17.1950   -1.6100   -4.8000 H       0  UNK0        0.0618
     31  H         16.7290    0.7570   -4.3280 H       0  UNK0        0.0624
     32  H         15.2340    2.4070   -4.1690 H       0  UNK0        0.0624
     33  H         14.6760    4.7670   -3.6760 H       0  UNK0        0.0618
     34  H         14.6490    5.5820   -1.3310 H       0  UNK0        0.0632
     35  H         15.8090    1.6830    0.0410 H       0  UNK0        0.0638
     36  H         14.9150   -0.3230   -0.5920 H       0  UNK0        0.0628
     37  H         16.3100   -2.7380    0.8910 H       0  UNK0        0.2427
     38  H         13.5850   -2.0120    3.2060 H       0  UNK0        0.1257
     39  H         11.6540   -2.6250    2.0630 H       0  UNK0        0.0431
     40  H         11.6290   -1.1850    1.0380 H       0  UNK0        0.0431
     41  H         11.0340   -2.7260    0.4120 H       0  UNK0        0.0431
     42  H         15.2860   -2.2730    3.0470 H       0  UNK0        0.1257
@<TRIPOS>BOND
     1     1     2    1
     2     1    24    1
     3     1    25    1
     4     1    26    1
     5     2     3    1
     6     2    27    1
     7     2    28    1
     8     3     4    1
     9     3    17    1
    10     3    22    1
    11     4     5   ar
    12     4    16   ar
    13     5     6   ar
    14     5    29    1
    15     6     7   ar
    16     6    30    1
    17     7     8   ar
    18     7    31    1
    19     8     9    1
    20     8    16   ar
    21     9    10   ar
    22     9    15   ar
    23    10    11   ar
    24    10    32    1
    25    11    12   ar
    26    11    33    1
    27    12    13   ar
    28    12    34    1
    29    13    14    1
    30    13    15   ar
    31    15    35    1
    32    16    36    1
    33    17    18    1
    34    17    37    1
    35    18    19    1
    36    18    20    1
    37    19    38    1
    38    19    42    1
    39    20    21    1
    40    20    22   am
    41    21    39    1
    42    21    40    1
    43    21    41    1
    44    22    23    2
