@<TRIPOS>MOLECULE
../fesetup/poses/IOO1/ligand.pdb
 43 46 0 0 0
SMALL
GASTEIGER

@<TRIPOS>ATOM
      1 Cl1        14.0410   -5.6500    0.2730 Cl      0  UNK0       -0.1110
      2  C         11.7680   -1.9960    1.1320 C.3     0  UNK0        0.0103
      3  N         13.0770   -2.4190    0.6250 N.am    0  UNK0       -0.2332
      4  C         14.2290   -2.5040    1.3140 C.3     0  UNK0        0.2306
      5  N         14.3930   -2.2700    2.6190 N.3     0  UNK0       -0.2608
      6  N         15.2450   -2.8860    0.5390 N.4     0  UNK0        0.3797
      7  C         14.8080   -3.1960   -0.8190 C.3     0  UNK0        0.1446
      8  C         15.4850   -2.1790   -1.7990 C.ar    0  UNK0        0.0163
      9  C         16.1730   -2.5190   -2.9930 C.ar    0  UNK0       -0.0523
     10  C         16.6530   -1.5250   -3.8620 C.ar    0  UNK0       -0.0607
     11  C         16.4490   -0.1690   -3.5710 C.ar    0  UNK0       -0.0540
     12  C         15.8250    0.2330   -2.3760 C.ar    0  UNK0       -0.0174
     13  C         15.5940    1.6730   -2.0930 C.ar    0  UNK0       -0.0165
     14  C         15.3340    2.5860   -3.1440 C.ar    0  UNK0       -0.0539
     15  C         15.0300    3.9370   -2.8820 C.ar    0  UNK0       -0.0598
     16  C         15.0030    4.4100   -1.5610 C.ar    0  UNK0       -0.0434
     17  C         15.3020    3.5360   -0.5050 C.ar    0  UNK0        0.0416
     18 Cl         15.3000    4.1390    1.1110 Cl      0  UNK0       -0.0835
     19  C         15.5920    2.1810   -0.7730 C.ar    0  UNK0       -0.0357
     20  C         15.3790   -0.7860   -1.5000 C.ar    0  UNK0       -0.0446
     21  C         14.9140   -4.7630   -0.9860 C.3     0  UNK0        0.1051
     22  C         14.8870   -5.4500   -2.3330 C.3     0  UNK0       -0.0256
     23  C         16.1530   -5.4450   -1.5200 C.3     0  UNK0       -0.0256
     24  C         13.3200   -2.8070   -0.7250 C.2     0  UNK0        0.2803
     25  O         12.4610   -2.8390   -1.6130 O.2     0  UNK0       -0.2683
     26  H         11.6690   -2.2270    2.1920 H       0  UNK0        0.0431
     27  H         11.6580   -0.9220    0.9900 H       0  UNK0        0.0431
     28  H         10.9560   -2.4930    0.6020 H       0  UNK0        0.0431
     29  H         13.6580   -1.9500    3.2470 H       0  UNK0        0.1257
     30  H         16.2190   -2.9490    0.8390 H       0  UNK0        0.2428
     31  H         16.3610   -3.5210   -3.3230 H       0  UNK0        0.0622
     32  H         17.1600   -1.8030   -4.7760 H       0  UNK0        0.0618
     33  H         16.7780    0.5690   -4.2850 H       0  UNK0        0.0624
     34  H         15.3170    2.2430   -4.1690 H       0  UNK0        0.0624
     35  H         14.7870    4.6130   -3.6880 H       0  UNK0        0.0618
     36  H         14.7510    5.4410   -1.3550 H       0  UNK0        0.0632
     37  H         15.8180    1.5270    0.0510 H       0  UNK0        0.0638
     38  H         14.8800   -0.4710   -0.5960 H       0  UNK0        0.0629
     39  H         14.3560   -6.3970   -2.4160 H       0  UNK0        0.0285
     40  H         14.8230   -4.8300   -3.2130 H       0  UNK0        0.0285
     41  H         16.9650   -4.8200   -1.8430 H       0  UNK0        0.0285
     42  H         16.4620   -6.3800   -1.0570 H       0  UNK0        0.0285
     43  H         15.3290   -2.3340    3.0230 H       0  UNK0        0.1257
@<TRIPOS>BOND
     1     1    21    1
     2     2     3    1
     3     2    26    1
     4     2    27    1
     5     2    28    1
     6     3     4    1
     7     3    24   am
     8     4     5    1
     9     4     6    1
    10     5    29    1
    11     5    43    1
    12     6     7    1
    13     6    30    1
    14     7     8    1
    15     7    21    1
    16     7    24    1
    17     8     9   ar
    18     8    20   ar
    19     9    10   ar
    20     9    31    1
    21    10    11   ar
    22    10    32    1
    23    11    12   ar
    24    11    33    1
    25    12    13    1
    26    12    20   ar
    27    13    14   ar
    28    13    19   ar
    29    14    15   ar
    30    14    34    1
    31    15    16   ar
    32    15    35    1
    33    16    17   ar
    34    16    36    1
    35    17    18    1
    36    17    19   ar
    37    19    37    1
    38    20    38    1
    39    21    22    1
    40    21    23    1
    41    22    23    1
    42    22    39    1
    43    22    40    1
    44    23    41    1
    45    23    42    1
    46    24    25    2
