@<TRIPOS>MOLECULE
../fesetup/poses/36/ligand.pdb
 46 49 0 0 0
SMALL
GASTEIGER

@<TRIPOS>ATOM
      1  C         14.8620    4.8350    1.1620 C.3     0  UNK0        0.0789
      2  O         15.5060    3.6190    0.8240 O.3     0  UNK0       -0.4936
      3  C         15.5030    3.2550   -0.5040 C.ar    0  UNK0        0.1387
      4  C         15.3200    4.1380   -1.5910 C.ar    0  UNK0        0.0692
      5  N         15.3570    3.7400   -2.8750 N.ar    0  UNK0       -0.2590
      6  C         15.5480    2.4300   -3.1300 C.ar    0  UNK0        0.0355
      7  C         15.7090    1.4390   -2.1360 C.ar    0  UNK0        0.0037
      8  C         15.8420   -0.0010   -2.4610 C.ar    0  UNK0       -0.0159
      9  C         16.3310   -0.4070   -3.7130 C.ar    0  UNK0       -0.0540
     10  C         16.3920   -1.7640   -4.0580 C.ar    0  UNK0       -0.0607
     11  C         15.9460   -2.7510   -3.1640 C.ar    0  UNK0       -0.0524
     12  C         15.4720   -2.3990   -1.8780 C.ar    0  UNK0        0.0148
     13  C         14.9080   -3.4070   -0.8340 C.3     0  UNK0        0.1283
     14  C         15.1740   -4.9290   -0.9310 C.3     0  UNK0        0.0197
     15  C         14.8730   -5.7780   -2.1410 C.3     0  UNK0       -0.0435
     16  C         16.2960   -5.6350   -1.6620 C.3     0  UNK0       -0.0435
     17  N         15.3120   -3.0240    0.5180 N.4     0  UNK0        0.3786
     18  C         14.2750   -2.7110    1.2950 C.3     0  UNK0        0.2305
     19  N         14.4150   -2.3940    2.5880 N.3     0  UNK0       -0.2608
     20  N         13.1180   -2.7750    0.6180 N.am    0  UNK0       -0.2332
     21  C         11.7850   -2.4930    1.1590 C.3     0  UNK0        0.0103
     22  C         13.3890   -3.1880   -0.7200 C.2     0  UNK0        0.2788
     23  O         12.5280   -3.3360   -1.5930 O.2     0  UNK0       -0.2684
     24  C         15.4440   -1.0130   -1.5540 C.ar    0  UNK0       -0.0446
     25  C         15.7030    1.8990   -0.8050 C.ar    0  UNK0       -0.0093
     26  H         14.8380    4.9420    2.2470 H       0  UNK0        0.0660
     27  H         15.3760    5.6990    0.7520 H       0  UNK0        0.0660
     28  H         13.8370    4.8350    0.7950 H       0  UNK0        0.0660
     29  H         15.1540    5.1940   -1.4430 H       0  UNK0        0.0867
     30  H         15.5350    2.1700   -4.1770 H       0  UNK0        0.0836
     31  H         16.6510    0.3200   -4.4420 H       0  UNK0        0.0624
     32  H         16.7660   -2.0340   -5.0340 H       0  UNK0        0.0618
     33  H         15.9800   -3.7600   -3.5290 H       0  UNK0        0.0622
     34  H         14.9010   -5.4260   -0.0010 H       0  UNK0        0.0368
     35  H         14.3800   -6.7350   -1.9830 H       0  UNK0        0.0270
     36  H         14.5830   -5.2660   -3.0450 H       0  UNK0        0.0270
     37  H         16.9750   -5.0800   -2.2920 H       0  UNK0        0.0270
     38  H         16.7460   -6.4900   -1.1620 H       0  UNK0        0.0270
     39  H         16.2890   -2.9970    0.8160 H       0  UNK0        0.2427
     40  H         13.6580   -2.0900    3.1970 H       0  UNK0        0.1257
     41  H         11.0200   -2.4650    0.3820 H       0  UNK0        0.0431
     42  H         11.5050   -3.2430    1.8970 H       0  UNK0        0.0431
     43  H         11.8050   -1.5230    1.6420 H       0  UNK0        0.0431
     44  H         15.0490   -0.7090   -0.5980 H       0  UNK0        0.0629
     45  H         15.8440    1.2080    0.0050 H       0  UNK0        0.0661
     46  H         15.3520   -2.3780    2.9950 H       0  UNK0        0.1257
@<TRIPOS>BOND
     1     1     2    1
     2     1    26    1
     3     1    27    1
     4     1    28    1
     5     2     3    1
     6     3     4   ar
     7     3    25   ar
     8     4     5   ar
     9     4    29    1
    10     5     6   ar
    11     6     7   ar
    12     6    30    1
    13     7     8    1
    14     7    25   ar
    15     8     9   ar
    16     8    24   ar
    17     9    10   ar
    18     9    31    1
    19    10    11   ar
    20    10    32    1
    21    11    12   ar
    22    11    33    1
    23    12    13    1
    24    12    24   ar
    25    13    14    1
    26    13    17    1
    27    13    22    1
    28    14    15    1
    29    14    16    1
    30    14    34    1
    31    15    16    1
    32    15    35    1
    33    15    36    1
    34    16    37    1
    35    16    38    1
    36    17    18    1
    37    17    39    1
    38    18    19    1
    39    18    20    1
    40    19    40    1
    41    19    46    1
    42    20    21    1
    43    20    22   am
    44    21    41    1
    45    21    42    1
    46    21    43    1
    47    22    23    2
    48    24    44    1
    49    25    45    1
