@<TRIPOS>MOLECULE
../datasets/input/BACE/poses/31/ligand.pdb
 45 48 0 0 0
SMALL
GASTEIGER

@<TRIPOS>ATOM
      1  C         11.7080   -2.3340    1.2790 C.3     0  UNK0        0.0103
      2  N         13.0270   -2.6810    0.7330 N.am    0  UNK0       -0.2329
      3  C         14.1990   -2.6480    1.3820 C.3     0  UNK0        0.2310
      4  N         14.3800   -2.3630    2.6740 N.3     0  UNK0       -0.2608
      5  N         15.2170   -2.9460    0.5770 N.4     0  UNK0        0.3817
      6  C         14.7860   -3.2920   -0.7800 C.3     0  UNK0        0.1513
      7  C         15.1320   -4.7730   -1.0530 C.ar    0  UNK0        0.0187
      8  C         16.3610   -5.2810   -0.5800 C.ar    0  UNK0       -0.0521
      9  C         16.7390   -6.6180   -0.7850 C.ar    0  UNK0       -0.0613
     10  C         15.8670   -7.4920   -1.4440 C.ar    0  UNK0       -0.0617
     11  C         14.6400   -7.0150   -1.9350 C.ar    0  UNK0       -0.0613
     12  C         14.2820   -5.6630   -1.7530 C.ar    0  UNK0       -0.0521
     13  C         15.3660   -2.2950   -1.7990 C.ar    0  UNK0        0.0193
     14  C         15.9430   -2.7230   -3.0180 C.ar    0  UNK0       -0.0520
     15  C         16.4290   -1.7760   -3.9350 C.ar    0  UNK0       -0.0607
     16  C         16.3310   -0.4020   -3.6590 C.ar    0  UNK0       -0.0540
     17  C         15.7810    0.0630   -2.4470 C.ar    0  UNK0       -0.0159
     18  C         15.6530    1.5130   -2.1630 C.ar    0  UNK0        0.0029
     19  C         15.5220    2.4730   -3.1910 C.ar    0  UNK0        0.0354
     20  N         15.3350    3.7920   -2.9800 N.ar    0  UNK0       -0.2598
     21  C         15.2790    4.2300   -1.7070 C.ar    0  UNK0        0.0628
     22  C         15.4380    3.3820   -0.6010 C.ar    0  UNK0        0.1420
     23  F         15.3970    3.8650    0.6640 F       0  UNK0       -0.2039
     24  C         15.6330    2.0130   -0.8420 C.ar    0  UNK0       -0.0158
     25  C         15.3160   -0.9040   -1.5260 C.ar    0  UNK0       -0.0443
     26  C         13.2670   -3.0500   -0.6250 C.2     0  UNK0        0.2833
     27  O         12.3850   -3.1140   -1.4900 O.2     0  UNK0       -0.2680
     28  H         11.6550   -2.5570    2.3440 H       0  UNK0        0.0431
     29  H         11.5250   -1.2690    1.1370 H       0  UNK0        0.0431
     30  H         10.9130   -2.8850    0.7780 H       0  UNK0        0.0431
     31  H         15.3270   -2.3640    3.0580 H       0  UNK0        0.1257
     32  H         16.1980   -2.9380    0.8560 H       0  UNK0        0.2432
     33  H         17.0280   -4.6430   -0.0290 H       0  UNK0        0.0623
     34  H         17.6890   -6.9710   -0.4080 H       0  UNK0        0.0618
     35  H         16.1440   -8.5260   -1.5530 H       0  UNK0        0.0618
     36  H         13.9720   -7.6890   -2.4490 H       0  UNK0        0.0618
     37  H         13.3370   -5.3350   -2.1500 H       0  UNK0        0.0623
     38  H         16.0210   -3.7710   -3.2730 H       0  UNK0        0.0623
     39  H         16.8710   -2.0940   -4.8680 H       0  UNK0        0.0618
     40  H         16.6870    0.2930   -4.4030 H       0  UNK0        0.0624
     41  H         15.5280    2.1750   -4.2290 H       0  UNK0        0.0836
     42  H         15.1000    5.2850   -1.5660 H       0  UNK0        0.0859
     43  H         15.7730    1.3510   -0.0060 H       0  UNK0        0.0653
     44  H         14.8710   -0.5690   -0.6010 H       0  UNK0        0.0629
     45  H         13.6420   -2.0670    3.3100 H       0  UNK0        0.1257
@<TRIPOS>BOND
     1     1     2    1
     2     1    28    1
     3     1    29    1
     4     1    30    1
     5     2     3    1
     6     2    26   am
     7     3     4    1
     8     3     5    1
     9     4    31    1
    10     4    45    1
    11     5     6    1
    12     5    32    1
    13     6     7    1
    14     6    13    1
    15     6    26    1
    16     7     8   ar
    17     7    12   ar
    18     8     9   ar
    19     8    33    1
    20     9    10   ar
    21     9    34    1
    22    10    11   ar
    23    10    35    1
    24    11    12   ar
    25    11    36    1
    26    12    37    1
    27    13    14   ar
    28    13    25   ar
    29    14    15   ar
    30    14    38    1
    31    15    16   ar
    32    15    39    1
    33    16    17   ar
    34    16    40    1
    35    17    18    1
    36    17    25   ar
    37    18    19   ar
    38    18    24   ar
    39    19    20   ar
    40    19    41    1
    41    20    21   ar
    42    21    22   ar
    43    21    42    1
    44    22    23    1
    45    22    24   ar
    46    24    43    1
    47    25    44    1
    48    26    27    2
