@<TRIPOS>MOLECULE
../datasets/input/BACE/poses/12/ligand.pdb
 43 46 0 0 0
SMALL
GASTEIGER

@<TRIPOS>ATOM
      1  C         11.7270   -2.5840    1.3290 C.3     0  UNK0        0.0103
      2  N         13.0530   -2.6450    0.7060 N.am    0  UNK0       -0.2332
      3  C         14.2320   -2.5930    1.3460 C.3     0  UNK0        0.2305
      4  N         14.4070   -2.4120    2.6580 N.3     0  UNK0       -0.2608
      5  N         15.2570   -2.7750    0.5130 N.4     0  UNK0        0.3786
      6  C         14.8120   -3.0760   -0.8430 C.3     0  UNK0        0.1283
      7  C         15.3590   -2.0160   -1.8440 C.ar    0  UNK0        0.0148
      8  C         16.0200   -2.3190   -3.0600 C.ar    0  UNK0       -0.0524
      9  C         16.4380   -1.2950   -3.9240 C.ar    0  UNK0       -0.0607
     10  C         16.1810    0.0500   -3.6160 C.ar    0  UNK0       -0.0540
     11  C         15.5430    0.4050   -2.4120 C.ar    0  UNK0       -0.0173
     12  C         15.2160    1.8210   -2.1140 C.ar    0  UNK0       -0.0151
     13  C         15.3570    2.3660   -0.8160 C.ar    0  UNK0       -0.0356
     14  C         14.9850    3.7010   -0.5360 C.ar    0  UNK0        0.0429
     15 Cl         15.1560    4.3440    1.0550 Cl      0  UNK0       -0.0835
     16  C         14.4610    4.5130   -1.5550 C.ar    0  UNK0       -0.0250
     17  C         14.3210    3.9930   -2.8520 C.ar    0  UNK0        0.0429
     18 Cl         13.6520    4.9770   -4.0970 Cl      0  UNK0       -0.0835
     19  C         14.7050    2.6650   -3.1280 C.ar    0  UNK0       -0.0356
     20  C         15.1680   -0.6370   -1.5330 C.ar    0  UNK0       -0.0447
     21  C         15.0320   -4.5980   -1.0300 C.3     0  UNK0        0.0197
     22  C         14.8680   -5.3410   -2.3310 C.3     0  UNK0       -0.0435
     23  C         16.2130   -5.2990   -1.6570 C.3     0  UNK0       -0.0435
     24  C         13.2930   -2.8880   -0.6770 C.2     0  UNK0        0.2788
     25  O         12.4120   -2.9820   -1.5380 O.2     0  UNK0       -0.2684
     26  H         11.4700   -3.5570    1.7450 H       0  UNK0        0.0431
     27  H         11.7370   -1.8710    2.1450 H       0  UNK0        0.0431
     28  H         10.9530   -2.2890    0.6210 H       0  UNK0        0.0431
     29  H         13.6640   -2.1510    3.3040 H       0  UNK0        0.1257
     30  H         16.2400   -2.7840    0.7870 H       0  UNK0        0.2427
     31  H         16.2290   -3.3150   -3.3990 H       0  UNK0        0.0622
     32  H         16.9460   -1.5530   -4.8430 H       0  UNK0        0.0618
     33  H         16.4790    0.8090   -4.3260 H       0  UNK0        0.0624
     34  H         15.7510    1.7580   -0.0170 H       0  UNK0        0.0638
     35  H         14.1590    5.5300   -1.3430 H       0  UNK0        0.0647
     36  H         14.5640    2.2800   -4.1280 H       0  UNK0        0.0638
     37  H         14.6630   -0.3620   -0.6210 H       0  UNK0        0.0628
     38  H         14.6220   -5.1530   -0.1850 H       0  UNK0        0.0368
     39  H         14.3020   -6.2720   -2.3060 H       0  UNK0        0.0270
     40  H         14.7450   -4.7530   -3.2260 H       0  UNK0        0.0270
     41  H         16.9720   -4.7220   -2.1490 H       0  UNK0        0.0270
     42  H         16.5740   -6.2030   -1.1700 H       0  UNK0        0.0270
     43  H         15.3570   -2.4020    3.0360 H       0  UNK0        0.1257
@<TRIPOS>BOND
     1     1     2    1
     2     1    26    1
     3     1    27    1
     4     1    28    1
     5     2     3    1
     6     2    24   am
     7     3     4    1
     8     3     5    1
     9     4    29    1
    10     4    43    1
    11     5     6    1
    12     5    30    1
    13     6     7    1
    14     6    21    1
    15     6    24    1
    16     7     8   ar
    17     7    20   ar
    18     8     9   ar
    19     8    31    1
    20     9    10   ar
    21     9    32    1
    22    10    11   ar
    23    10    33    1
    24    11    12    1
    25    11    20   ar
    26    12    13   ar
    27    12    19   ar
    28    13    14   ar
    29    13    34    1
    30    14    15    1
    31    14    16   ar
    32    16    17   ar
    33    16    35    1
    34    17    18    1
    35    17    19   ar
    36    19    36    1
    37    20    37    1
    38    21    22    1
    39    21    23    1
    40    21    38    1
    41    22    23    1
    42    22    39    1
    43    22    40    1
    44    23    41    1
    45    23    42    1
    46    24    25    2
