@<TRIPOS>MOLECULE
../fesetup/poses/14/ligand.pdb
 46 49 0 0 0
SMALL
GASTEIGER

@<TRIPOS>ATOM
      1  C         11.7070   -2.3240    1.1520 C.3     0  UNK0        0.0103
      2  N         13.0800   -2.5320    0.6750 N.am    0  UNK0       -0.2332
      3  C         14.2030   -2.4300    1.3980 C.3     0  UNK0        0.2305
      4  N         14.2890   -2.2310    2.7110 N.3     0  UNK0       -0.2608
      5  N         15.2910   -2.5890    0.6540 N.4     0  UNK0        0.3784
      6  C         14.9790   -2.9820   -0.7080 C.3     0  UNK0        0.1257
      7  C         15.4750   -4.4510   -0.8100 C.3     0  UNK0        0.0108
      8  C         15.0160   -5.2710   -1.9950 C.3     0  UNK0       -0.0348
      9  C         16.0510   -5.9030   -2.8810 C.3     0  UNK0       -0.0497
     10  C         15.1860   -6.7770   -2.0220 C.3     0  UNK0       -0.0497
     11  C         15.5530   -1.9670   -1.7160 C.ar    0  UNK0        0.0146
     12  C         16.2220   -2.3570   -2.8990 C.ar    0  UNK0       -0.0524
     13  C         16.6510   -1.3900   -3.8250 C.ar    0  UNK0       -0.0607
     14  C         16.4180   -0.0250   -3.5810 C.ar    0  UNK0       -0.0540
     15  C         15.8040    0.4090   -2.3880 C.ar    0  UNK0       -0.0174
     16  C         15.5510    1.8450   -2.1200 C.ar    0  UNK0       -0.0165
     17  C         15.2560    2.7420   -3.1740 C.ar    0  UNK0       -0.0539
     18  C         14.9250    4.0880   -2.9140 C.ar    0  UNK0       -0.0598
     19  C         14.8970    4.5660   -1.5930 C.ar    0  UNK0       -0.0434
     20  C         15.2240    3.7030   -0.5360 C.ar    0  UNK0        0.0416
     21 Cl         15.2030    4.2950    1.0850 Cl      0  UNK0       -0.0835
     22  C         15.5520    2.3590   -0.8010 C.ar    0  UNK0       -0.0357
     23  C         15.3870   -0.5810   -1.4700 C.ar    0  UNK0       -0.0447
     24  C         13.4410   -2.8720   -0.6620 C.2     0  UNK0        0.2785
     25  O         12.6320   -3.0300   -1.5820 O.2     0  UNK0       -0.2684
     26  H         11.6040   -2.6350    2.1920 H       0  UNK0        0.0431
     27  H         11.4530   -1.2670    1.0810 H       0  UNK0        0.0431
     28  H         10.9880   -2.8880    0.5560 H       0  UNK0        0.0431
     29  H         13.5000   -2.0140    3.3170 H       0  UNK0        0.1257
     30  H         16.2490   -2.5890    1.0090 H       0  UNK0        0.2427
     31  H         15.1580   -4.9960    0.0810 H       0  UNK0        0.0335
     32  H         16.5650   -4.4620   -0.7700 H       0  UNK0        0.0335
     33  H         14.1140   -4.9160   -2.4840 H       0  UNK0        0.0303
     34  H         15.8390   -5.7720   -3.9330 H       0  UNK0        0.0268
     35  H         17.0970   -5.8250   -2.6010 H       0  UNK0        0.0268
     36  H         15.6530   -7.2540   -1.1620 H       0  UNK0        0.0268
     37  H         14.4210   -7.3680   -2.5220 H       0  UNK0        0.0268
     38  H         16.4110   -3.3880   -3.1400 H       0  UNK0        0.0622
     39  H         17.1460   -1.6960   -4.7370 H       0  UNK0        0.0618
     40  H         16.7200    0.6930   -4.3260 H       0  UNK0        0.0624
     41  H         15.2350    2.3870   -4.1940 H       0  UNK0        0.0624
     42  H         14.6630    4.7530   -3.7240 H       0  UNK0        0.0618
     43  H         14.6230    5.5910   -1.3890 H       0  UNK0        0.0632
     44  H         15.7970    1.7150    0.0270 H       0  UNK0        0.0638
     45  H         14.8790   -0.2620   -0.5740 H       0  UNK0        0.0628
     46  H         15.2060   -2.2090    3.1540 H       0  UNK0        0.1257
@<TRIPOS>BOND
     1     1     2    1
     2     1    26    1
     3     1    27    1
     4     1    28    1
     5     2     3    1
     6     2    24   am
     7     3     4    1
     8     3     5    1
     9     4    29    1
    10     4    46    1
    11     5     6    1
    12     5    30    1
    13     6     7    1
    14     6    11    1
    15     6    24    1
    16     7     8    1
    17     7    31    1
    18     7    32    1
    19     8     9    1
    20     8    10    1
    21     8    33    1
    22     9    10    1
    23     9    34    1
    24     9    35    1
    25    10    36    1
    26    10    37    1
    27    11    12   ar
    28    11    23   ar
    29    12    13   ar
    30    12    38    1
    31    13    14   ar
    32    13    39    1
    33    14    15   ar
    34    14    40    1
    35    15    16    1
    36    15    23   ar
    37    16    17   ar
    38    16    22   ar
    39    17    18   ar
    40    17    41    1
    41    18    19   ar
    42    18    42    1
    43    19    20   ar
    44    19    43    1
    45    20    21    1
    46    20    22   ar
    47    22    44    1
    48    23    45    1
    49    24    25    2
