@<TRIPOS>MOLECULE
../datasets/input/BACE/poses/03/ligand.pdb
 50 53 0 0 0
SMALL
GASTEIGER

@<TRIPOS>ATOM
      1  C         12.5710    5.3510   -2.7660 C.3     0  UNK0        0.0788
      2  O         13.7080    5.1550   -1.9290 O.3     0  UNK0       -0.4951
      3  C         14.3520    3.9580   -2.1070 C.ar    0  UNK0        0.1201
      4  C         14.8800    3.2990   -0.9810 C.ar    0  UNK0       -0.0194
      5  C         15.4000    1.9960   -1.1050 C.ar    0  UNK0       -0.0506
      6  C         15.4240    1.3430   -2.3580 C.ar    0  UNK0       -0.0176
      7  C         15.7610   -0.0830   -2.4960 C.ar    0  UNK0       -0.0174
      8  C         16.4100   -0.5580   -3.6480 C.ar    0  UNK0       -0.0540
      9  C         16.5940   -1.9310   -3.8580 C.ar    0  UNK0       -0.0607
     10  C         16.0900   -2.8630   -2.9350 C.ar    0  UNK0       -0.0520
     11  C         15.4300   -2.4160   -1.7640 C.ar    0  UNK0        0.0193
     12  C         14.8180   -3.3950   -0.7510 C.3     0  UNK0        0.1513
     13  C         15.1630   -4.8770   -1.0180 C.ar    0  UNK0        0.0187
     14  C         14.3260   -5.7680   -1.7330 C.ar    0  UNK0       -0.0521
     15  C         14.7020   -7.1140   -1.9230 C.ar    0  UNK0       -0.0613
     16  C         15.9320   -7.5800   -1.4260 C.ar    0  UNK0       -0.0617
     17  C         16.7920   -6.7000   -0.7600 C.ar    0  UNK0       -0.0613
     18  C         16.3960   -5.3710   -0.5450 C.ar    0  UNK0       -0.0521
     19  N         15.2310   -3.0390    0.6070 N.4     0  UNK0        0.3817
     20  C         14.2080   -2.6970    1.3870 C.3     0  UNK0        0.2310
     21  N         14.3760   -2.3750    2.6720 N.3     0  UNK0       -0.2608
     22  N         13.0450   -2.7270    0.7210 N.am    0  UNK0       -0.2329
     23  C         11.7300   -2.3300    1.2410 C.3     0  UNK0        0.0103
     24  C         13.2980   -3.1410   -0.6220 C.2     0  UNK0        0.2833
     25  O         12.4260   -3.2220   -1.4950 O.2     0  UNK0       -0.2680
     26  C         15.3170   -1.0200   -1.5410 C.ar    0  UNK0       -0.0443
     27  C         15.0020    2.0600   -3.4970 C.ar    0  UNK0       -0.0506
     28  C         14.4600    3.3470   -3.3730 C.ar    0  UNK0       -0.0194
     29  H         11.9720    6.1860   -2.4060 H       0  UNK0        0.0660
     30  H         12.8590    5.5870   -3.7900 H       0  UNK0        0.0660
     31  H         11.9230    4.4730   -2.7730 H       0  UNK0        0.0660
     32  H         14.8190    3.7670   -0.0100 H       0  UNK0        0.0654
     33  H         15.7380    1.4790   -0.2210 H       0  UNK0        0.0625
     34  H         16.7420    0.1380   -4.4010 H       0  UNK0        0.0624
     35  H         17.0960   -2.2500   -4.7560 H       0  UNK0        0.0618
     36  H         16.2160   -3.9140   -3.1520 H       0  UNK0        0.0623
     37  H         13.3830   -5.4460   -2.1400 H       0  UNK0        0.0623
     38  H         14.0450   -7.7900   -2.4490 H       0  UNK0        0.0618
     39  H         16.2290   -8.6070   -1.5340 H       0  UNK0        0.0618
     40  H         17.7480   -7.0430   -0.3880 H       0  UNK0        0.0618
     41  H         17.0550   -4.7250    0.0060 H       0  UNK0        0.0623
     42  H         16.2100   -3.0100    0.8920 H       0  UNK0        0.2432
     43  H         13.6320   -2.0600    3.2930 H       0  UNK0        0.1257
     44  H         10.9200   -2.8080    0.6890 H       0  UNK0        0.0431
     45  H         11.6300   -2.5990    2.2920 H       0  UNK0        0.0431
     46  H         11.6160   -1.2510    1.1440 H       0  UNK0        0.0431
     47  H         14.8060   -0.6510   -0.6640 H       0  UNK0        0.0629
     48  H         15.0100    1.5950   -4.4720 H       0  UNK0        0.0625
     49  H         14.0880    3.8360   -4.2590 H       0  UNK0        0.0654
     50  H         15.3180   -2.3680    3.0650 H       0  UNK0        0.1257
@<TRIPOS>BOND
     1     1     2    1
     2     1    29    1
     3     1    30    1
     4     1    31    1
     5     2     3    1
     6     3     4   ar
     7     3    28   ar
     8     4     5   ar
     9     4    32    1
    10     5     6   ar
    11     5    33    1
    12     6     7    1
    13     6    27   ar
    14     7     8   ar
    15     7    26   ar
    16     8     9   ar
    17     8    34    1
    18     9    10   ar
    19     9    35    1
    20    10    11   ar
    21    10    36    1
    22    11    12    1
    23    11    26   ar
    24    12    13    1
    25    12    19    1
    26    12    24    1
    27    13    14   ar
    28    13    18   ar
    29    14    15   ar
    30    14    37    1
    31    15    16   ar
    32    15    38    1
    33    16    17   ar
    34    16    39    1
    35    17    18   ar
    36    17    40    1
    37    18    41    1
    38    19    20    1
    39    19    42    1
    40    20    21    1
    41    20    22    1
    42    21    43    1
    43    21    50    1
    44    22    23    1
    45    22    24   am
    46    23    44    1
    47    23    45    1
    48    23    46    1
    49    24    25    2
    50    26    47    1
    51    27    28   ar
    52    27    48    1
    53    28    49    1
