../datasets/input/BACE/poses/03/ligand.pdb
 OpenBabel02191913393D

 50 53  0  0  1  0  0  0  0  0999 V2000
   12.5710    5.3510   -2.7660 C   0  0  0  0  0  0  0  0  0  0  0  0
   13.7080    5.1550   -1.9290 O   0  0  0  0  0  0  0  0  0  0  0  0
   14.3520    3.9580   -2.1070 C   0  0  0  0  0  0  0  0  0  0  0  0
   14.8800    3.2990   -0.9810 C   0  0  0  0  0  0  0  0  0  0  0  0
   15.4000    1.9960   -1.1050 C   0  0  0  0  0  0  0  0  0  0  0  0
   15.4240    1.3430   -2.3580 C   0  0  0  0  0  0  0  0  0  0  0  0
   15.7610   -0.0830   -2.4960 C   0  0  0  0  0  0  0  0  0  0  0  0
   16.4100   -0.5580   -3.6480 C   0  0  0  0  0  0  0  0  0  0  0  0
   16.5940   -1.9310   -3.8580 C   0  0  0  0  0  0  0  0  0  0  0  0
   16.0900   -2.8630   -2.9350 C   0  0  0  0  0  0  0  0  0  0  0  0
   15.4300   -2.4160   -1.7640 C   0  0  0  0  0  0  0  0  0  0  0  0
   14.8180   -3.3950   -0.7510 C   0  0  1  0  0  0  0  0  0  0  0  0
   15.1630   -4.8770   -1.0180 C   0  0  0  0  0  0  0  0  0  0  0  0
   14.3260   -5.7680   -1.7330 C   0  0  0  0  0  0  0  0  0  0  0  0
   14.7020   -7.1140   -1.9230 C   0  0  0  0  0  0  0  0  0  0  0  0
   15.9320   -7.5800   -1.4260 C   0  0  0  0  0  0  0  0  0  0  0  0
   16.7920   -6.7000   -0.7600 C   0  0  0  0  0  0  0  0  0  0  0  0
   16.3960   -5.3710   -0.5450 C   0  0  0  0  0  0  0  0  0  0  0  0
   15.2310   -3.0390    0.6070 N   0  3  0  0  0  0  0  0  0  0  0  0
   14.2080   -2.6970    1.3870 C   0  0  2  0  0  0  0  0  0  0  0  0
   14.3760   -2.3750    2.6720 N   0  0  0  0  0  0  0  0  0  0  0  0
   13.0450   -2.7270    0.7210 N   0  0  0  0  0  0  0  0  0  0  0  0
   11.7300   -2.3300    1.2410 C   0  0  0  0  0  0  0  0  0  0  0  0
   13.2980   -3.1410   -0.6220 C   0  0  0  0  0  0  0  0  0  0  0  0
   12.4260   -3.2220   -1.4950 O   0  0  0  0  0  0  0  0  0  0  0  0
   15.3170   -1.0200   -1.5410 C   0  0  0  0  0  0  0  0  0  0  0  0
   15.0020    2.0600   -3.4970 C   0  0  0  0  0  0  0  0  0  0  0  0
   14.4600    3.3470   -3.3730 C   0  0  0  0  0  0  0  0  0  0  0  0
   11.9720    6.1860   -2.4060 H   0  0  0  0  0  0  0  0  0  0  0  0
   12.8590    5.5870   -3.7900 H   0  0  0  0  0  0  0  0  0  0  0  0
   11.9230    4.4730   -2.7730 H   0  0  0  0  0  0  0  0  0  0  0  0
   14.8190    3.7670   -0.0100 H   0  0  0  0  0  0  0  0  0  0  0  0
   15.7380    1.4790   -0.2210 H   0  0  0  0  0  0  0  0  0  0  0  0
   16.7420    0.1380   -4.4010 H   0  0  0  0  0  0  0  0  0  0  0  0
   17.0960   -2.2500   -4.7560 H   0  0  0  0  0  0  0  0  0  0  0  0
   16.2160   -3.9140   -3.1520 H   0  0  0  0  0  0  0  0  0  0  0  0
   13.3830   -5.4460   -2.1400 H   0  0  0  0  0  0  0  0  0  0  0  0
   14.0450   -7.7900   -2.4490 H   0  0  0  0  0  0  0  0  0  0  0  0
   16.2290   -8.6070   -1.5340 H   0  0  0  0  0  0  0  0  0  0  0  0
   17.7480   -7.0430   -0.3880 H   0  0  0  0  0  0  0  0  0  0  0  0
   17.0550   -4.7250    0.0060 H   0  0  0  0  0  0  0  0  0  0  0  0
   16.2100   -3.0100    0.8920 H   0  0  0  0  0  0  0  0  0  0  0  0
   13.6320   -2.0600    3.2930 H   0  0  0  0  0  0  0  0  0  0  0  0
   10.9200   -2.8080    0.6890 H   0  0  0  0  0  0  0  0  0  0  0  0
   11.6300   -2.5990    2.2920 H   0  0  0  0  0  0  0  0  0  0  0  0
   11.6160   -1.2510    1.1440 H   0  0  0  0  0  0  0  0  0  0  0  0
   14.8060   -0.6510   -0.6640 H   0  0  0  0  0  0  0  0  0  0  0  0
   15.0100    1.5950   -4.4720 H   0  0  0  0  0  0  0  0  0  0  0  0
   14.0880    3.8360   -4.2590 H   0  0  0  0  0  0  0  0  0  0  0  0
   15.3180   -2.3680    3.0650 H   0  0  0  0  0  0  0  0  0  0  0  0
  1  2  1  0  0  0  0
  1 29  1  0  0  0  0
  1 30  1  0  0  0  0
  1 31  1  0  0  0  0
  2  3  1  0  0  0  0
  3  4  2  0  0  0  0
  3 28  1  0  0  0  0
  4  5  1  0  0  0  0
  4 32  1  0  0  0  0
  5  6  2  0  0  0  0
  5 33  1  0  0  0  0
  6  7  1  0  0  0  0
  6 27  1  0  0  0  0
  7  8  2  0  0  0  0
  7 26  1  0  0  0  0
  8  9  1  0  0  0  0
  8 34  1  0  0  0  0
  9 10  2  0  0  0  0
  9 35  1  0  0  0  0
 10 11  1  0  0  0  0
 10 36  1  0  0  0  0
 11 26  2  0  0  0  0
 12 11  1  6  0  0  0
 12 13  1  0  0  0  0
 12 19  1  0  0  0  0
 12 24  1  0  0  0  0
 13 14  2  0  0  0  0
 13 18  1  0  0  0  0
 14 15  1  0  0  0  0
 14 37  1  0  0  0  0
 15 16  2  0  0  0  0
 15 38  1  0  0  0  0
 16 17  1  0  0  0  0
 16 39  1  0  0  0  0
 17 18  2  0  0  0  0
 17 40  1  0  0  0  0
 18 41  1  0  0  0  0
 19 20  1  0  0  0  0
 19 42  1  0  0  0  0
 20 21  1  1  0  0  0
 20 22  1  0  0  0  0
 21 43  1  0  0  0  0
 21 50  1  0  0  0  0
 22 23  1  0  0  0  0
 22 24  1  0  0  0  0
 23 44  1  0  0  0  0
 23 45  1  0  0  0  0
 23 46  1  0  0  0  0
 24 25  2  0  0  0  0
 26 47  1  0  0  0  0
 27 28  2  0  0  0  0
 27 48  1  0  0  0  0
 28 49  1  0  0  0  0
M  CHG  1  19   1
M  END
