../datasets/input/BACE/poses/13/ligand.pdb
 OpenBabel02191913393D

 43 46  0  0  1  0  0  0  0  0999 V2000
   11.7870   -2.3690    1.0810 C   0  0  0  0  0  0  0  0  0  0  0  0
   13.1390   -2.6650    0.5890 N   0  0  0  0  0  0  0  0  0  0  0  0
   14.2720   -2.5930    1.3030 C   0  0  1  0  0  0  0  0  0  0  0  0
   14.3730   -2.3190    2.6080 N   0  0  0  0  0  0  0  0  0  0  0  0
   15.3400   -2.8500    0.5490 N   0  3  0  0  0  0  0  0  0  0  0  0
   15.0020   -3.1740   -0.8290 C   0  0  1  0  0  0  0  0  0  0  0  0
   15.5500   -2.1170   -1.8050 C   0  0  0  0  0  0  0  0  0  0  0  0
   16.1750   -2.4940   -3.0180 C   0  0  0  0  0  0  0  0  0  0  0  0
   16.6120   -1.5160   -3.9230 C   0  0  0  0  0  0  0  0  0  0  0  0
   16.4090   -0.1560   -3.6430 C   0  0  0  0  0  0  0  0  0  0  0  0
   15.8120    0.2670   -2.4360 C   0  0  0  0  0  0  0  0  0  0  0  0
   15.5760    1.7080   -2.1750 C   0  0  0  0  0  0  0  0  0  0  0  0
   15.3710    2.6230   -3.2330 C   0  0  0  0  0  0  0  0  0  0  0  0
   15.0910    3.9310   -3.0640 N   0  0  0  0  0  0  0  0  0  0  0  0
   15.0100    4.4070   -1.8090 C   0  0  0  0  0  0  0  0  0  0  0  0
   15.2270    3.6080   -0.6780 C   0  0  0  0  0  0  0  0  0  0  0  0
   15.1480    4.1900    0.6470 C   0  0  0  0  0  0  0  0  0  0  0  0
   15.0880    4.6560    1.7030 N   0  0  0  0  0  0  0  0  0  0  0  0
   15.5210    2.2440   -0.8680 C   0  0  0  0  0  0  0  0  0  0  0  0
   15.4070   -0.7330   -1.5200 C   0  0  0  0  0  0  0  0  0  0  0  0
   15.5580   -4.5840   -1.0990 C   0  0  0  0  0  0  0  0  0  0  0  0
   14.8990   -5.8590   -0.6070 C   0  0  0  0  0  0  0  0  0  0  0  0
   14.9620   -5.5650   -2.0860 C   0  0  0  0  0  0  0  0  0  0  0  0
   13.4650   -3.0500   -0.7490 C   0  0  0  0  0  0  0  0  0  0  0  0
   12.6340   -3.2040   -1.6490 O   0  0  0  0  0  0  0  0  0  0  0  0
   11.6500   -2.7580    2.0900 H   0  0  0  0  0  0  0  0  0  0  0  0
   11.6360   -1.2910    1.1050 H   0  0  0  0  0  0  0  0  0  0  0  0
   11.0200   -2.8060    0.4400 H   0  0  0  0  0  0  0  0  0  0  0  0
   13.5960   -2.0530    3.2090 H   0  0  0  0  0  0  0  0  0  0  0  0
   16.3060   -2.8320    0.8840 H   0  0  0  0  0  0  0  0  0  0  0  0
   16.3240   -3.5280   -3.2920 H   0  0  0  0  0  0  0  0  0  0  0  0
   17.0860   -1.8070   -4.8500 H   0  0  0  0  0  0  0  0  0  0  0  0
   16.7170    0.5620   -4.3860 H   0  0  0  0  0  0  0  0  0  0  0  0
   15.3880    2.2930   -4.2600 H   0  0  0  0  0  0  0  0  0  0  0  0
   14.7670    5.4560   -1.7110 H   0  0  0  0  0  0  0  0  0  0  0  0
   15.7080    1.6130   -0.0150 H   0  0  0  0  0  0  0  0  0  0  0  0
   14.9270   -0.4330   -0.6000 H   0  0  0  0  0  0  0  0  0  0  0  0
   16.6440   -4.6020   -1.0410 H   0  0  0  0  0  0  0  0  0  0  0  0
   15.5490   -6.6460   -0.2310 H   0  0  0  0  0  0  0  0  0  0  0  0
   13.9220   -5.8030   -0.1310 H   0  0  0  0  0  0  0  0  0  0  0  0
   14.0280   -5.3110   -2.5720 H   0  0  0  0  0  0  0  0  0  0  0  0
   15.6530   -6.1500   -2.6920 H   0  0  0  0  0  0  0  0  0  0  0  0
   15.2970   -2.3100    3.0420 H   0  0  0  0  0  0  0  0  0  0  0  0
  1  2  1  0  0  0  0
  1 26  1  0  0  0  0
  1 27  1  0  0  0  0
  1 28  1  0  0  0  0
  2  3  1  0  0  0  0
  2 24  1  0  0  0  0
  3  4  1  1  0  0  0
  3  5  1  0  0  0  0
  4 29  1  0  0  0  0
  4 43  1  0  0  0  0
  5  6  1  0  0  0  0
  5 30  1  0  0  0  0
  6  7  1  6  0  0  0
  6 21  1  0  0  0  0
  6 24  1  0  0  0  0
  7  8  2  0  0  0  0
  7 20  1  0  0  0  0
  8  9  1  0  0  0  0
  8 31  1  0  0  0  0
  9 10  2  0  0  0  0
  9 32  1  0  0  0  0
 10 11  1  0  0  0  0
 10 33  1  0  0  0  0
 11 12  1  0  0  0  0
 11 20  2  0  0  0  0
 12 13  2  0  0  0  0
 12 19  1  0  0  0  0
 13 14  1  0  0  0  0
 13 34  1  0  0  0  0
 14 15  2  0  0  0  0
 15 16  1  0  0  0  0
 15 35  1  0  0  0  0
 16 17  1  0  0  0  0
 16 19  2  0  0  0  0
 17 18  3  0  0  0  0
 19 36  1  0  0  0  0
 20 37  1  0  0  0  0
 21 22  1  0  0  0  0
 21 23  1  0  0  0  0
 21 38  1  0  0  0  0
 22 23  1  0  0  0  0
 22 39  1  0  0  0  0
 22 40  1  0  0  0  0
 23 41  1  0  0  0  0
 23 42  1  0  0  0  0
 24 25  2  0  0  0  0
M  CHG  1   5   1
M  END
