@<TRIPOS>MOLECULE
../datasets/input/BACE/poses/33/ligand.pdb
 45 48 0 0 0
SMALL
GASTEIGER

@<TRIPOS>ATOM
      1  C         11.6960   -2.2640    1.2650 C.3     0  UNK0        0.0103
      2  N         13.0210   -2.5150    0.6890 N.am    0  UNK0       -0.2328
      3  C         14.1990   -2.5220    1.3340 C.3     0  UNK0        0.2310
      4  N         14.3750   -2.3540    2.6480 N.3     0  UNK0       -0.2608
      5  N         15.2240   -2.7250    0.5040 N.4     0  UNK0        0.3829
      6  C         14.7660   -3.0200   -0.8500 C.3     0  UNK0        0.1682
      7  C         15.3110   -1.9900   -1.8760 C.ar    0  UNK0        0.0208
      8  C         15.6770   -2.3430   -3.1990 C.ar    0  UNK0       -0.0520
      9  C         16.1750   -1.3670   -4.0760 C.ar    0  UNK0       -0.0607
     10  C         16.1930   -0.0120   -3.7020 C.ar    0  UNK0       -0.0540
     11  C         15.7280    0.4000   -2.4340 C.ar    0  UNK0       -0.0174
     12  C         15.5350    1.8410   -2.1140 C.ar    0  UNK0       -0.0165
     13  C         15.2020    2.7620   -3.1390 C.ar    0  UNK0       -0.0539
     14  C         14.8790    4.1030   -2.8500 C.ar    0  UNK0       -0.0598
     15  C         14.8910    4.5600   -1.5220 C.ar    0  UNK0       -0.0434
     16  C         15.2550    3.6780   -0.4910 C.ar    0  UNK0        0.0416
     17 Cl         15.2850    4.2510    1.1370 Cl      0  UNK0       -0.0835
     18  C         15.5760    2.3370   -0.7870 C.ar    0  UNK0       -0.0357
     19  C         15.3580   -0.6130   -1.5170 C.ar    0  UNK0       -0.0443
     20  C         15.0380   -4.5320   -1.0580 C.ar    0  UNK0        0.1073
     21  C         16.1910   -4.9950   -1.7180 C.ar    0  UNK0       -0.0337
     22  C         16.4400   -6.3690   -1.8210 C.ar    0  UNK0       -0.0584
     23  C         15.5360   -7.2610   -1.2300 C.ar    0  UNK0       -0.0436
     24  C         14.4410   -6.7310   -0.5350 C.ar    0  UNK0        0.0281
     25  N         14.2060   -5.4070   -0.4350 N.ar    0  UNK0       -0.2530
     26  C         13.2560   -2.7590   -0.6950 C.2     0  UNK0        0.2848
     27  O         12.3800   -2.7350   -1.5710 O.2     0  UNK0       -0.2679
     28  H         11.6760   -2.5190    2.3230 H       0  UNK0        0.0431
     29  H         11.4470   -1.2120    1.1460 H       0  UNK0        0.0431
     30  H         10.9320   -2.8550    0.7590 H       0  UNK0        0.0431
     31  H         15.3190   -2.3800    3.0340 H       0  UNK0        0.1257
     32  H         16.2000   -2.8170    0.7850 H       0  UNK0        0.2433
     33  H         15.6010   -3.3570   -3.5740 H       0  UNK0        0.0623
     34  H         16.5120   -1.6640   -5.0570 H       0  UNK0        0.0618
     35  H         16.5310    0.7130   -4.4280 H       0  UNK0        0.0624
     36  H         15.1300    2.4280   -4.1640 H       0  UNK0        0.0624
     37  H         14.5890    4.7790   -3.6410 H       0  UNK0        0.0618
     38  H         14.6220    5.5820   -1.2920 H       0  UNK0        0.0632
     39  H         15.8350    1.6820    0.0280 H       0  UNK0        0.0638
     40  H         15.0130   -0.3140   -0.5390 H       0  UNK0        0.0629
     41  H         16.8850   -4.2980   -2.1490 H       0  UNK0        0.0638
     42  H         17.3210   -6.7180   -2.3300 H       0  UNK0        0.0619
     43  H         15.6890   -8.3280   -1.2780 H       0  UNK0        0.0633
     44  H         13.7480   -7.3830   -0.0240 H       0  UNK0        0.0829
     45  H         13.6330   -2.0830    3.2910 H       0  UNK0        0.1257
@<TRIPOS>BOND
     1     1     2    1
     2     1    28    1
     3     1    29    1
     4     1    30    1
     5     2     3    1
     6     2    26   am
     7     3     4    1
     8     3     5    1
     9     4    31    1
    10     4    45    1
    11     5     6    1
    12     5    32    1
    13     6     7    1
    14     6    20    1
    15     6    26    1
    16     7     8   ar
    17     7    19   ar
    18     8     9   ar
    19     8    33    1
    20     9    10   ar
    21     9    34    1
    22    10    11   ar
    23    10    35    1
    24    11    12    1
    25    11    19   ar
    26    12    13   ar
    27    12    18   ar
    28    13    14   ar
    29    13    36    1
    30    14    15   ar
    31    14    37    1
    32    15    16   ar
    33    15    38    1
    34    16    17    1
    35    16    18   ar
    36    18    39    1
    37    19    40    1
    38    20    21   ar
    39    20    25   ar
    40    21    22   ar
    41    21    41    1
    42    22    23   ar
    43    22    42    1
    44    23    24   ar
    45    23    43    1
    46    24    25   ar
    47    24    44    1
    48    26    27    2
