../datasets/input/BACE/poses/36/ligand.pdb
 OpenBabel02191913393D

 46 49  0  0  1  0  0  0  0  0999 V2000
   14.8620    4.8350    1.1620 C   0  0  0  0  0  0  0  0  0  0  0  0
   15.5060    3.6190    0.8240 O   0  0  0  0  0  0  0  0  0  0  0  0
   15.5030    3.2550   -0.5040 C   0  0  0  0  0  0  0  0  0  0  0  0
   15.3200    4.1380   -1.5910 C   0  0  0  0  0  0  0  0  0  0  0  0
   15.3570    3.7400   -2.8750 N   0  0  0  0  0  0  0  0  0  0  0  0
   15.5480    2.4300   -3.1300 C   0  0  0  0  0  0  0  0  0  0  0  0
   15.7090    1.4390   -2.1360 C   0  0  0  0  0  0  0  0  0  0  0  0
   15.8420   -0.0010   -2.4610 C   0  0  0  0  0  0  0  0  0  0  0  0
   16.3310   -0.4070   -3.7130 C   0  0  0  0  0  0  0  0  0  0  0  0
   16.3920   -1.7640   -4.0580 C   0  0  0  0  0  0  0  0  0  0  0  0
   15.9460   -2.7510   -3.1640 C   0  0  0  0  0  0  0  0  0  0  0  0
   15.4720   -2.3990   -1.8780 C   0  0  0  0  0  0  0  0  0  0  0  0
   14.9080   -3.4070   -0.8340 C   0  0  1  0  0  0  0  0  0  0  0  0
   15.1740   -4.9290   -0.9310 C   0  0  0  0  0  0  0  0  0  0  0  0
   14.8730   -5.7780   -2.1410 C   0  0  0  0  0  0  0  0  0  0  0  0
   16.2960   -5.6350   -1.6620 C   0  0  0  0  0  0  0  0  0  0  0  0
   15.3120   -3.0240    0.5180 N   0  3  0  0  0  0  0  0  0  0  0  0
   14.2750   -2.7110    1.2950 C   0  0  2  0  0  0  0  0  0  0  0  0
   14.4150   -2.3940    2.5880 N   0  0  0  0  0  0  0  0  0  0  0  0
   13.1180   -2.7750    0.6180 N   0  0  0  0  0  0  0  0  0  0  0  0
   11.7850   -2.4930    1.1590 C   0  0  0  0  0  0  0  0  0  0  0  0
   13.3890   -3.1880   -0.7200 C   0  0  0  0  0  0  0  0  0  0  0  0
   12.5280   -3.3360   -1.5930 O   0  0  0  0  0  0  0  0  0  0  0  0
   15.4440   -1.0130   -1.5540 C   0  0  0  0  0  0  0  0  0  0  0  0
   15.7030    1.8990   -0.8050 C   0  0  0  0  0  0  0  0  0  0  0  0
   14.8380    4.9420    2.2470 H   0  0  0  0  0  0  0  0  0  0  0  0
   15.3760    5.6990    0.7520 H   0  0  0  0  0  0  0  0  0  0  0  0
   13.8370    4.8350    0.7950 H   0  0  0  0  0  0  0  0  0  0  0  0
   15.1540    5.1940   -1.4430 H   0  0  0  0  0  0  0  0  0  0  0  0
   15.5350    2.1700   -4.1770 H   0  0  0  0  0  0  0  0  0  0  0  0
   16.6510    0.3200   -4.4420 H   0  0  0  0  0  0  0  0  0  0  0  0
   16.7660   -2.0340   -5.0340 H   0  0  0  0  0  0  0  0  0  0  0  0
   15.9800   -3.7600   -3.5290 H   0  0  0  0  0  0  0  0  0  0  0  0
   14.9010   -5.4260   -0.0010 H   0  0  0  0  0  0  0  0  0  0  0  0
   14.3800   -6.7350   -1.9830 H   0  0  0  0  0  0  0  0  0  0  0  0
   14.5830   -5.2660   -3.0450 H   0  0  0  0  0  0  0  0  0  0  0  0
   16.9750   -5.0800   -2.2920 H   0  0  0  0  0  0  0  0  0  0  0  0
   16.7460   -6.4900   -1.1620 H   0  0  0  0  0  0  0  0  0  0  0  0
   16.2890   -2.9970    0.8160 H   0  0  0  0  0  0  0  0  0  0  0  0
   13.6580   -2.0900    3.1970 H   0  0  0  0  0  0  0  0  0  0  0  0
   11.0200   -2.4650    0.3820 H   0  0  0  0  0  0  0  0  0  0  0  0
   11.5050   -3.2430    1.8970 H   0  0  0  0  0  0  0  0  0  0  0  0
   11.8050   -1.5230    1.6420 H   0  0  0  0  0  0  0  0  0  0  0  0
   15.0490   -0.7090   -0.5980 H   0  0  0  0  0  0  0  0  0  0  0  0
   15.8440    1.2080    0.0050 H   0  0  0  0  0  0  0  0  0  0  0  0
   15.3520   -2.3780    2.9950 H   0  0  0  0  0  0  0  0  0  0  0  0
  1  2  1  0  0  0  0
  1 26  1  0  0  0  0
  1 27  1  0  0  0  0
  1 28  1  0  0  0  0
  2  3  1  0  0  0  0
  3  4  2  0  0  0  0
  3 25  1  0  0  0  0
  4  5  1  0  0  0  0
  4 29  1  0  0  0  0
  5  6  2  0  0  0  0
  6  7  1  0  0  0  0
  6 30  1  0  0  0  0
  7  8  1  0  0  0  0
  7 25  2  0  0  0  0
  8  9  2  0  0  0  0
  8 24  1  0  0  0  0
  9 10  1  0  0  0  0
  9 31  1  0  0  0  0
 10 11  2  0  0  0  0
 10 32  1  0  0  0  0
 11 12  1  0  0  0  0
 11 33  1  0  0  0  0
 12 24  2  0  0  0  0
 13 12  1  6  0  0  0
 13 14  1  0  0  0  0
 13 17  1  0  0  0  0
 13 22  1  0  0  0  0
 14 15  1  0  0  0  0
 14 16  1  0  0  0  0
 14 34  1  0  0  0  0
 15 16  1  0  0  0  0
 15 35  1  0  0  0  0
 15 36  1  0  0  0  0
 16 37  1  0  0  0  0
 16 38  1  0  0  0  0
 17 18  1  0  0  0  0
 17 39  1  0  0  0  0
 18 19  1  1  0  0  0
 18 20  1  0  0  0  0
 19 40  1  0  0  0  0
 19 46  1  0  0  0  0
 20 21  1  0  0  0  0
 20 22  1  0  0  0  0
 21 41  1  0  0  0  0
 21 42  1  0  0  0  0
 21 43  1  0  0  0  0
 22 23  2  0  0  0  0
 24 44  1  0  0  0  0
 25 45  1  0  0  0  0
M  CHG  1  17   1
M  END
