../datasets/input/BACE/poses/16/ligand.pdb
 OpenBabel02191913393D

 45 47  0  0  1  0  0  0  0  0999 V2000
   14.8240   -5.5740   -0.0950 C   0  0  0  0  0  0  0  0  0  0  0  0
   15.4100   -4.5800   -1.1310 C   0  0  0  0  0  0  0  0  0  0  0  0
   15.0450   -5.1770   -2.5040 C   0  0  0  0  0  0  0  0  0  0  0  0
   15.0000   -3.0810   -0.8560 C   0  0  2  0  0  0  0  0  0  0  0  0
   15.6260   -1.9910   -1.7550 C   0  0  0  0  0  0  0  0  0  0  0  0
   16.4960   -2.2940   -2.8280 C   0  0  0  0  0  0  0  0  0  0  0  0
   16.9110   -1.2930   -3.7150 C   0  0  0  0  0  0  0  0  0  0  0  0
   16.5210    0.0380   -3.5030 C   0  0  0  0  0  0  0  0  0  0  0  0
   15.7880    0.4120   -2.3600 C   0  0  0  0  0  0  0  0  0  0  0  0
   15.4740    1.8320   -2.0910 C   0  0  0  0  0  0  0  0  0  0  0  0
   15.1410    2.7150   -3.1460 C   0  0  0  0  0  0  0  0  0  0  0  0
   14.7980    4.0580   -2.8920 C   0  0  0  0  0  0  0  0  0  0  0  0
   14.7940    4.5480   -1.5750 C   0  0  0  0  0  0  0  0  0  0  0  0
   15.1520    3.6970   -0.5160 C   0  0  0  0  0  0  0  0  0  0  0  0
   15.1670    4.3070    1.0980 Cl  0  0  0  0  0  0  0  0  0  0  0  0
   15.4910    2.3530   -0.7760 C   0  0  0  0  0  0  0  0  0  0  0  0
   15.3470   -0.6200   -1.5010 C   0  0  0  0  0  0  0  0  0  0  0  0
   15.3360   -2.7760    0.5290 N   0  3  0  0  0  0  0  0  0  0  0  0
   14.2640   -2.5230    1.2770 C   0  0  2  0  0  0  0  0  0  0  0  0
   14.3550   -2.2990    2.5930 N   0  0  0  0  0  0  0  0  0  0  0  0
   13.1360   -2.5500    0.5500 N   0  0  0  0  0  0  0  0  0  0  0  0
   11.7810   -2.2580    1.0360 C   0  0  0  0  0  0  0  0  0  0  0  0
   13.4690   -2.8910   -0.7990 C   0  0  0  0  0  0  0  0  0  0  0  0
   12.6470   -3.0010   -1.7150 O   0  0  0  0  0  0  0  0  0  0  0  0
   14.9200   -5.2280    0.9320 H   0  0  0  0  0  0  0  0  0  0  0  0
   13.7610   -5.7560   -0.2620 H   0  0  0  0  0  0  0  0  0  0  0  0
   15.3240   -6.5430   -0.1590 H   0  0  0  0  0  0  0  0  0  0  0  0
   16.4950   -4.6260   -1.0370 H   0  0  0  0  0  0  0  0  0  0  0  0
   15.5210   -6.1490   -2.6420 H   0  0  0  0  0  0  0  0  0  0  0  0
   13.9720   -5.3530   -2.5660 H   0  0  0  0  0  0  0  0  0  0  0  0
   15.3120   -4.5770   -3.3680 H   0  0  0  0  0  0  0  0  0  0  0  0
   16.8570   -3.2880   -3.0200 H   0  0  0  0  0  0  0  0  0  0  0  0
   17.5260   -1.5540   -4.5670 H   0  0  0  0  0  0  0  0  0  0  0  0
   16.8150    0.7850   -4.2160 H   0  0  0  0  0  0  0  0  0  0  0  0
   15.1170    2.3520   -4.1630 H   0  0  0  0  0  0  0  0  0  0  0  0
   14.5200    4.7130   -3.7050 H   0  0  0  0  0  0  0  0  0  0  0  0
   14.5170    5.5730   -1.3740 H   0  0  0  0  0  0  0  0  0  0  0  0
   15.7710    1.7170    0.0470 H   0  0  0  0  0  0  0  0  0  0  0  0
   14.7440   -0.3440   -0.6500 H   0  0  0  0  0  0  0  0  0  0  0  0
   16.2980   -2.7810    0.8710 H   0  0  0  0  0  0  0  0  0  0  0  0
   13.5760   -2.0340    3.1930 H   0  0  0  0  0  0  0  0  0  0  0  0
   11.0170   -2.6390    0.3590 H   0  0  0  0  0  0  0  0  0  0  0  0
   11.6230   -2.7040    2.0160 H   0  0  0  0  0  0  0  0  0  0  0  0
   11.6550   -1.1800    1.1210 H   0  0  0  0  0  0  0  0  0  0  0  0
   15.2760   -2.3090    3.0320 H   0  0  0  0  0  0  0  0  0  0  0  0
  1  2  1  0  0  0  0
  1 25  1  0  0  0  0
  1 26  1  0  0  0  0
  1 27  1  0  0  0  0
  2  3  1  0  0  0  0
  2 28  1  0  0  0  0
  3 29  1  0  0  0  0
  3 30  1  0  0  0  0
  3 31  1  0  0  0  0
  4  2  1  6  0  0  0
  4  5  1  0  0  0  0
  4 18  1  0  0  0  0
  4 23  1  0  0  0  0
  5  6  2  0  0  0  0
  5 17  1  0  0  0  0
  6  7  1  0  0  0  0
  6 32  1  0  0  0  0
  7  8  2  0  0  0  0
  7 33  1  0  0  0  0
  8  9  1  0  0  0  0
  8 34  1  0  0  0  0
  9 10  1  0  0  0  0
  9 17  2  0  0  0  0
 10 11  2  0  0  0  0
 10 16  1  0  0  0  0
 11 12  1  0  0  0  0
 11 35  1  0  0  0  0
 12 13  2  0  0  0  0
 12 36  1  0  0  0  0
 13 14  1  0  0  0  0
 13 37  1  0  0  0  0
 14 15  1  0  0  0  0
 14 16  2  0  0  0  0
 16 38  1  0  0  0  0
 17 39  1  0  0  0  0
 18 19  1  0  0  0  0
 18 40  1  0  0  0  0
 19 20  1  1  0  0  0
 19 21  1  0  0  0  0
 20 41  1  0  0  0  0
 20 45  1  0  0  0  0
 21 22  1  0  0  0  0
 21 23  1  0  0  0  0
 22 42  1  0  0  0  0
 22 43  1  0  0  0  0
 22 44  1  0  0  0  0
 23 24  2  0  0  0  0
M  CHG  1  18   1
M  END
