../datasets/input/BACE/poses/37/ligand.pdb
 OpenBabel02191913393D

 36 38  0  0  1  0  0  0  0  0999 V2000
   11.8130   -2.0990    1.0830 C   0  0  0  0  0  0  0  0  0  0  0  0
   13.1330   -2.4690    0.5570 N   0  0  0  0  0  0  0  0  0  0  0  0
   14.2850   -2.5310    1.2460 C   0  0  1  0  0  0  0  0  0  0  0  0
   14.4320   -2.3250    2.5610 N   0  0  0  0  0  0  0  0  0  0  0  0
   15.3130   -2.8530    0.4550 N   0  3  0  0  0  0  0  0  0  0  0  0
   14.9090   -3.0350   -0.9380 C   0  0  2  0  0  0  0  0  0  0  0  0
   15.5120   -1.9640   -1.8620 C   0  0  0  0  0  0  0  0  0  0  0  0
   16.1760   -2.3130   -3.0620 C   0  0  0  0  0  0  0  0  0  0  0  0
   16.6330   -1.3120   -3.9330 C   0  0  0  0  0  0  0  0  0  0  0  0
   16.4140    0.0420   -3.6290 C   0  0  0  0  0  0  0  0  0  0  0  0
   15.7990    0.4330   -2.4210 C   0  0  0  0  0  0  0  0  0  0  0  0
   15.5500    1.8630   -2.1170 C   0  0  0  0  0  0  0  0  0  0  0  0
   15.2540    2.7800   -3.1520 C   0  0  0  0  0  0  0  0  0  0  0  0
   14.9340    4.1230   -2.8690 C   0  0  0  0  0  0  0  0  0  0  0  0
   14.9160    4.5780   -1.5400 C   0  0  0  0  0  0  0  0  0  0  0  0
   15.2420    3.6930   -0.4990 C   0  0  0  0  0  0  0  0  0  0  0  0
   15.2370    4.2620    1.1300 Cl  0  0  0  0  0  0  0  0  0  0  0  0
   15.5570    2.3500   -0.7890 C   0  0  0  0  0  0  0  0  0  0  0  0
   15.3760   -0.5880   -1.5400 C   0  0  0  0  0  0  0  0  0  0  0  0
   13.3950   -2.8050   -0.8050 C   0  0  0  0  0  0  0  0  0  0  0  0
   12.5340   -2.8850   -1.6870 O   0  0  0  0  0  0  0  0  0  0  0  0
   15.1890   -4.4890   -1.3780 H   0  0  0  0  0  0  0  0  0  0  0  0
   11.6710   -1.0230    0.9800 H   0  0  0  0  0  0  0  0  0  0  0  0
   11.0130   -2.6020    0.5390 H   0  0  0  0  0  0  0  0  0  0  0  0
   11.7240   -2.3620    2.1370 H   0  0  0  0  0  0  0  0  0  0  0  0
   15.3680   -2.3770    2.9680 H   0  0  0  0  0  0  0  0  0  0  0  0
   16.3360   -3.3390   -3.3590 H   0  0  0  0  0  0  0  0  0  0  0  0
   17.1290   -1.5870   -4.8530 H   0  0  0  0  0  0  0  0  0  0  0  0
   16.7240    0.7860   -4.3450 H   0  0  0  0  0  0  0  0  0  0  0  0
   15.2250    2.4440   -4.1780 H   0  0  0  0  0  0  0  0  0  0  0  0
   14.6760    4.8040   -3.6680 H   0  0  0  0  0  0  0  0  0  0  0  0
   14.6510    5.6010   -1.3160 H   0  0  0  0  0  0  0  0  0  0  0  0
   15.8010    1.6880    0.0250 H   0  0  0  0  0  0  0  0  0  0  0  0
   14.8780   -0.3030   -0.6250 H   0  0  0  0  0  0  0  0  0  0  0  0
   13.6880   -2.0200    3.1840 H   0  0  0  0  0  0  0  0  0  0  0  0
   16.2530   -2.9560    0.7790 H   0  0  0  0  0  0  0  0  0  0  0  0
  1  2  1  0  0  0  0
  1 23  1  0  0  0  0
  1 24  1  0  0  0  0
  1 25  1  0  0  0  0
  2  3  1  0  0  0  0
  2 20  1  0  0  0  0
  3  4  1  1  0  0  0
  3  5  1  0  0  0  0
  4 26  1  0  0  0  0
  4 35  1  0  0  0  0
  5  6  1  0  0  0  0
  5 36  1  0  0  0  0
  6  7  1  0  0  0  0
  6 20  1  0  0  0  0
  6 22  1  6  0  0  0
  7  8  2  0  0  0  0
  7 19  1  0  0  0  0
  8  9  1  0  0  0  0
  8 27  1  0  0  0  0
  9 10  2  0  0  0  0
  9 28  1  0  0  0  0
 10 11  1  0  0  0  0
 10 29  1  0  0  0  0
 11 12  1  0  0  0  0
 11 19  2  0  0  0  0
 12 13  2  0  0  0  0
 12 18  1  0  0  0  0
 13 14  1  0  0  0  0
 13 30  1  0  0  0  0
 14 15  2  0  0  0  0
 14 31  1  0  0  0  0
 15 16  1  0  0  0  0
 15 32  1  0  0  0  0
 16 17  1  0  0  0  0
 16 18  2  0  0  0  0
 18 33  1  0  0  0  0
 19 34  1  0  0  0  0
 20 21  2  0  0  0  0
M  CHG  1   5   1
M  END
