@<TRIPOS>MOLECULE
../fesetup/poses/20/ligand.pdb
 52 55 0 0 0
SMALL
GASTEIGER

@<TRIPOS>ATOM
      1  C         11.6820   -2.1710    1.3300 C.3     0  UNK0        0.0103
      2  N         12.9760   -2.4300    0.6900 N.am    0  UNK0       -0.2332
      3  C         14.1860   -2.5030    1.2750 C.3     0  UNK0        0.2305
      4  N         14.4360   -2.3450    2.5800 N.3     0  UNK0       -0.2608
      5  N         15.1500   -2.7840    0.3900 N.4     0  UNK0        0.3786
      6  C         14.6010   -2.9820   -0.9560 C.3     0  UNK0        0.1283
      7  C         15.1280   -1.9200   -1.9460 C.ar    0  UNK0        0.0148
      8  C         15.4910   -2.2560   -3.2690 C.ar    0  UNK0       -0.0524
      9  C         16.0030   -1.2810   -4.1320 C.ar    0  UNK0       -0.0607
     10  C         16.0560    0.0660   -3.7340 C.ar    0  UNK0       -0.0540
     11  C         15.6100    0.4650   -2.4550 C.ar    0  UNK0       -0.0174
     12  C         15.4770    1.9020   -2.1040 C.ar    0  UNK0       -0.0165
     13  C         15.1740    2.8580   -3.1040 C.ar    0  UNK0       -0.0539
     14  C         14.9080    4.2030   -2.7790 C.ar    0  UNK0       -0.0598
     15  C         14.9470    4.6240   -1.4410 C.ar    0  UNK0       -0.0434
     16  C         15.2830    3.7050   -0.4340 C.ar    0  UNK0        0.0416
     17 Cl         15.3420    4.2340    1.2070 Cl      0  UNK0       -0.0835
     18  C         15.5530    2.3610   -0.7660 C.ar    0  UNK0       -0.0357
     19  C         15.2060   -0.5550   -1.5580 C.ar    0  UNK0       -0.0447
     20  C         14.7890   -4.4800   -1.3900 C.3     0  UNK0        0.0197
     21  C         16.2630   -4.8720   -1.6060 C.3     0  UNK0       -0.0439
     22  C         16.3890   -6.2770   -2.2010 C.3     0  UNK0       -0.0526
     23  C         15.8130   -7.3000   -1.2240 C.3     0  UNK0       -0.0530
     24  C         14.3460   -6.9750   -0.9190 C.3     0  UNK0       -0.0526
     25  C         14.1670   -5.5280   -0.4190 C.3     0  UNK0       -0.0439
     26  C         13.1180   -2.6880   -0.7030 C.2     0  UNK0        0.2788
     27  O         12.1860   -2.7190   -1.5140 O.2     0  UNK0       -0.2684
     28  H         11.3560   -1.1580    1.0940 H       0  UNK0        0.0431
     29  H         10.9230   -2.8630    0.9660 H       0  UNK0        0.0431
     30  H         11.7460   -2.2840    2.4100 H       0  UNK0        0.0431
     31  H         13.7420   -2.0410    3.2610 H       0  UNK0        0.1257
     32  H         16.1420   -2.8460    0.6120 H       0  UNK0        0.2427
     33  H         15.4230   -3.2620   -3.6540 H       0  UNK0        0.0622
     34  H         16.3340   -1.5770   -5.1140 H       0  UNK0        0.0618
     35  H         16.4160    0.7930   -4.4470 H       0  UNK0        0.0624
     36  H         15.0830    2.5510   -4.1350 H       0  UNK0        0.0624
     37  H         14.6440    4.9090   -3.5550 H       0  UNK0        0.0618
     38  H         14.7210    5.6480   -1.1820 H       0  UNK0        0.0632
     39  H         15.7990    1.6740    0.0260 H       0  UNK0        0.0638
     40  H         14.8760   -0.2710   -0.5720 H       0  UNK0        0.0628
     41  H         14.2660   -4.6100   -2.3390 H       0  UNK0        0.0368
     42  H         16.7770   -4.1760   -2.2560 H       0  UNK0        0.0270
     43  H         16.7870   -4.8370   -0.6500 H       0  UNK0        0.0270
     44  H         17.4340   -6.5020   -2.4010 H       0  UNK0        0.0265
     45  H         15.8710   -6.3310   -3.1600 H       0  UNK0        0.0265
     46  H         15.9010   -8.3040   -1.6300 H       0  UNK0        0.0265
     47  H         16.4020   -7.2920   -0.3050 H       0  UNK0        0.0265
     48  H         13.7480   -7.1280   -1.8190 H       0  UNK0        0.0265
     49  H         13.9650   -7.6730   -0.1730 H       0  UNK0        0.0265
     50  H         14.6310   -5.4380    0.5640 H       0  UNK0        0.0270
     51  H         13.1010   -5.3580   -0.2720 H       0  UNK0        0.0270
     52  H         15.3990   -2.4100    2.9170 H       0  UNK0        0.1257
@<TRIPOS>BOND
     1     1     2    1
     2     1    28    1
     3     1    29    1
     4     1    30    1
     5     2     3    1
     6     2    26   am
     7     3     4    1
     8     3     5    1
     9     4    31    1
    10     4    52    1
    11     5     6    1
    12     5    32    1
    13     6     7    1
    14     6    20    1
    15     6    26    1
    16     7     8   ar
    17     7    19   ar
    18     8     9   ar
    19     8    33    1
    20     9    10   ar
    21     9    34    1
    22    10    11   ar
    23    10    35    1
    24    11    12    1
    25    11    19   ar
    26    12    13   ar
    27    12    18   ar
    28    13    14   ar
    29    13    36    1
    30    14    15   ar
    31    14    37    1
    32    15    16   ar
    33    15    38    1
    34    16    17    1
    35    16    18   ar
    36    18    39    1
    37    19    40    1
    38    20    21    1
    39    20    25    1
    40    20    41    1
    41    21    22    1
    42    21    42    1
    43    21    43    1
    44    22    23    1
    45    22    44    1
    46    22    45    1
    47    23    24    1
    48    23    46    1
    49    23    47    1
    50    24    25    1
    51    24    48    1
    52    24    49    1
    53    25    50    1
    54    25    51    1
    55    26    27    2
