@<TRIPOS>MOLECULE
../fesetup/poses/24/ligand.pdb
 42 45 0 0 0
SMALL
GASTEIGER

@<TRIPOS>ATOM
      1  C         11.7880   -2.3630    1.0750 C.3     0  UNK0        0.0103
      2  N         13.1410   -2.6520    0.5830 N.am    0  UNK0       -0.2332
      3  C         14.2740   -2.5820    1.2970 C.3     0  UNK0        0.2305
      4  N         14.3740   -2.3180    2.6050 N.3     0  UNK0       -0.2608
      5  N         15.3420   -2.8320    0.5430 N.4     0  UNK0        0.3786
      6  C         15.0050   -3.1470   -0.8380 C.3     0  UNK0        0.1283
      7  C         15.5490   -2.0800   -1.8070 C.ar    0  UNK0        0.0148
      8  C         16.1590   -2.4450   -3.0300 C.ar    0  UNK0       -0.0524
      9  C         16.5920   -1.4580   -3.9270 C.ar    0  UNK0       -0.0607
     10  C         16.4000   -0.1000   -3.6280 C.ar    0  UNK0       -0.0540
     11  C         15.8190    0.3100   -2.4090 C.ar    0  UNK0       -0.0159
     12  C         15.5970    1.7480   -2.1180 C.ar    0  UNK0        0.0016
     13  C         15.3880    2.6890   -3.1520 C.ar    0  UNK0        0.0353
     14  N         15.1190    3.9950   -2.9530 N.ar    0  UNK0       -0.2612
     15  C         15.0500    4.4400   -1.6850 C.ar    0  UNK0        0.0459
     16  C         15.2750    3.6150   -0.5720 C.ar    0  UNK0        0.0596
     17 Cl         15.1920    4.2580    1.0280 Cl      0  UNK0       -0.0820
     18  C         15.5590    2.2560   -0.8000 C.ar    0  UNK0       -0.0327
     19  C         15.4170   -0.7000   -1.5020 C.ar    0  UNK0       -0.0446
     20  C         15.5680   -4.5520   -1.1180 C.3     0  UNK0        0.0197
     21  C         14.9250   -5.8310   -0.6180 C.3     0  UNK0       -0.0435
     22  C         14.9660   -5.5370   -2.0970 C.3     0  UNK0       -0.0435
     23  C         13.4680   -3.0280   -0.7570 C.2     0  UNK0        0.2788
     24  O         12.6390   -3.1790   -1.6590 O.2     0  UNK0       -0.2684
     25  H         11.0230   -2.8010    0.4330 H       0  UNK0        0.0431
     26  H         11.6520   -2.7550    2.0830 H       0  UNK0        0.0431
     27  H         11.6340   -1.2850    1.1020 H       0  UNK0        0.0431
     28  H         13.5960   -2.0540    3.2060 H       0  UNK0        0.1257
     29  H         16.3080   -2.8170    0.8780 H       0  UNK0        0.2427
     30  H         16.2990   -3.4770   -3.3190 H       0  UNK0        0.0622
     31  H         17.0550   -1.7420   -4.8630 H       0  UNK0        0.0618
     32  H         16.7060    0.6260   -4.3650 H       0  UNK0        0.0624
     33  H         15.3930    2.3810   -4.1860 H       0  UNK0        0.0836
     34  H         14.8130    5.4860   -1.5540 H       0  UNK0        0.0844
     35  H         15.7500    1.6090    0.0380 H       0  UNK0        0.0639
     36  H         14.9480   -0.4100   -0.5740 H       0  UNK0        0.0629
     37  H         16.6550   -4.5610   -1.0760 H       0  UNK0        0.0368
     38  H         15.5870   -6.6130   -0.2500 H       0  UNK0        0.0270
     39  H         13.9550   -5.7810   -0.1270 H       0  UNK0        0.0270
     40  H         14.0220   -5.2920   -2.5700 H       0  UNK0        0.0270
     41  H         15.6530   -6.1160   -2.7130 H       0  UNK0        0.0270
     42  H         15.2970   -2.3100    3.0400 H       0  UNK0        0.1257
@<TRIPOS>BOND
     1     1     2    1
     2     1    25    1
     3     1    26    1
     4     1    27    1
     5     2     3    1
     6     2    23   am
     7     3     4    1
     8     3     5    1
     9     4    28    1
    10     4    42    1
    11     5     6    1
    12     5    29    1
    13     6     7    1
    14     6    20    1
    15     6    23    1
    16     7     8   ar
    17     7    19   ar
    18     8     9   ar
    19     8    30    1
    20     9    10   ar
    21     9    31    1
    22    10    11   ar
    23    10    32    1
    24    11    12    1
    25    11    19   ar
    26    12    13   ar
    27    12    18   ar
    28    13    14   ar
    29    13    33    1
    30    14    15   ar
    31    15    16   ar
    32    15    34    1
    33    16    17    1
    34    16    18   ar
    35    18    35    1
    36    19    36    1
    37    20    21    1
    38    20    22    1
    39    20    37    1
    40    21    22    1
    41    21    38    1
    42    21    39    1
    43    22    40    1
    44    22    41    1
    45    23    24    2
