@<TRIPOS>MOLECULE
../fesetup/poses/06/ligand.pdb
 44 47 0 0 0
SMALL
GASTEIGER

@<TRIPOS>ATOM
      1  C         11.7750   -2.0500    1.1860 C.3     0  UNK0        0.0103
      2  N         13.0810   -2.4050    0.6210 N.am    0  UNK0       -0.2329
      3  C         14.2520   -2.5120    1.2700 C.3     0  UNK0        0.2310
      4  N         14.4440   -2.3220    2.5810 N.3     0  UNK0       -0.2608
      5  N         15.2420   -2.8670    0.4440 N.4     0  UNK0        0.3818
      6  C         14.7740   -3.0860   -0.9270 C.3     0  UNK0        0.1542
      7  C         14.9000   -4.5950   -1.2710 C.ar    0  UNK0        0.0548
      8  C         16.0470   -5.1640   -1.8460 C.ar    0  UNK0        0.0405
      9  N         16.1700   -6.4830   -2.0820 N.ar    0  UNK0       -0.2432
     10  C         15.1540   -7.2490   -1.7240 C.ar    0  UNK0        0.1159
     11  N         14.0440   -6.8480   -1.1290 N.ar    0  UNK0       -0.2432
     12  C         13.9100   -5.5340   -0.9210 C.ar    0  UNK0        0.0405
     13  C         15.3790   -2.0450   -1.9000 C.ar    0  UNK0        0.0194
     14  C         15.8330   -2.3840   -3.1970 C.ar    0  UNK0       -0.0520
     15  C         16.3420   -1.3950   -4.0510 C.ar    0  UNK0       -0.0607
     16  C         16.3040   -0.0420   -3.6750 C.ar    0  UNK0       -0.0540
     17  C         15.7980    0.3540   -2.4200 C.ar    0  UNK0       -0.0174
     18  C         15.5970    1.7920   -2.0980 C.ar    0  UNK0       -0.0165
     19  C         15.2950    2.7190   -3.1260 C.ar    0  UNK0       -0.0539
     20  C         14.9740    4.0600   -2.8360 C.ar    0  UNK0       -0.0598
     21  C         14.9640    4.5100   -1.5060 C.ar    0  UNK0       -0.0434
     22  C         15.3030    3.6220   -0.4730 C.ar    0  UNK0        0.0416
     23 Cl         15.3090    4.1920    1.1560 Cl      0  UNK0       -0.0835
     24  C         15.6160    2.2790   -0.7700 C.ar    0  UNK0       -0.0357
     25  C         15.4020   -0.6710   -1.5260 C.ar    0  UNK0       -0.0443
     26  C         13.2880   -2.7180   -0.7540 C.2     0  UNK0        0.2834
     27  O         12.3960   -2.7760   -1.6050 O.2     0  UNK0       -0.2680
     28  H         10.9780   -2.6470    0.7440 H       0  UNK0        0.0431
     29  H         11.7570   -2.2170    2.2630 H       0  UNK0        0.0431
     30  H         11.5610   -1.0000    0.9840 H       0  UNK0        0.0431
     31  H         15.3900   -2.3980    2.9630 H       0  UNK0        0.1257
     32  H         16.2250   -2.9100    0.7180 H       0  UNK0        0.2432
     33  H         16.8880   -4.5570   -2.1240 H       0  UNK0        0.0836
     34  H         15.2630   -8.3090   -1.8720 H       0  UNK0        0.1047
     35  H         12.9970   -5.2630   -0.4150 H       0  UNK0        0.0836
     36  H         15.7950   -3.3850   -3.5940 H       0  UNK0        0.0623
     37  H         16.7240   -1.6740   -5.0220 H       0  UNK0        0.0618
     38  H         16.6360    0.6970   -4.3900 H       0  UNK0        0.0624
     39  H         15.2470    2.3930   -4.1560 H       0  UNK0        0.0624
     40  H         14.7000    4.7390   -3.6310 H       0  UNK0        0.0618
     41  H         14.6920    5.5290   -1.2780 H       0  UNK0        0.0632
     42  H         15.8580    1.6170    0.0450 H       0  UNK0        0.0638
     43  H         15.0170   -0.3790   -0.5610 H       0  UNK0        0.0629
     44  H         13.7270   -2.0000    3.2300 H       0  UNK0        0.1257
@<TRIPOS>BOND
     1     1     2    1
     2     1    28    1
     3     1    29    1
     4     1    30    1
     5     2     3    1
     6     2    26   am
     7     3     4    1
     8     3     5    1
     9     4    31    1
    10     4    44    1
    11     5     6    1
    12     5    32    1
    13     6     7    1
    14     6    13    1
    15     6    26    1
    16     7     8   ar
    17     7    12   ar
    18     8     9   ar
    19     8    33    1
    20     9    10   ar
    21    10    11   ar
    22    10    34    1
    23    11    12   ar
    24    12    35    1
    25    13    14   ar
    26    13    25   ar
    27    14    15   ar
    28    14    36    1
    29    15    16   ar
    30    15    37    1
    31    16    17   ar
    32    16    38    1
    33    17    18    1
    34    17    25   ar
    35    18    19   ar
    36    18    24   ar
    37    19    20   ar
    38    19    39    1
    39    20    21   ar
    40    20    40    1
    41    21    22   ar
    42    21    41    1
    43    22    23    1
    44    22    24   ar
    45    24    42    1
    46    25    43    1
    47    26    27    2
