@<TRIPOS>MOLECULE
../fesetup/poses/29/ligand.pdb
 46 49 0 0 0
SMALL
GASTEIGER

@<TRIPOS>ATOM
      1  C         11.8370   -2.0140    1.1170 C.3     0  UNK0        0.0103
      2  N         13.1190   -2.4440    0.5480 N.am    0  UNK0       -0.2332
      3  C         14.2830   -2.6030    1.1990 C.3     0  UNK0        0.2305
      4  N         14.4760   -2.4190    2.5140 N.3     0  UNK0       -0.2608
      5  N         15.2650   -2.9840    0.3720 N.4     0  UNK0        0.3786
      6  C         14.8040   -3.0770   -1.0180 C.3     0  UNK0        0.1283
      7  C         15.4610   -2.0000   -1.9040 C.ar    0  UNK0        0.0148
      8  C         16.1510   -2.3400   -3.0920 C.ar    0  UNK0       -0.0524
      9  C         16.6410   -1.3350   -3.9380 C.ar    0  UNK0       -0.0607
     10  C         16.4310    0.0170   -3.6220 C.ar    0  UNK0       -0.0540
     11  C         15.8010    0.4010   -2.4220 C.ar    0  UNK0       -0.0174
     12  C         15.5620    1.8310   -2.1120 C.ar    0  UNK0       -0.0165
     13  C         15.2810    2.7550   -3.1460 C.ar    0  UNK0       -0.0539
     14  C         14.9680    4.1000   -2.8610 C.ar    0  UNK0       -0.0598
     15  C         14.9450    4.5490   -1.5310 C.ar    0  UNK0       -0.0434
     16  C         15.2590    3.6600   -0.4910 C.ar    0  UNK0        0.0416
     17 Cl         15.2530    4.2290    1.1380 Cl      0  UNK0       -0.0835
     18  C         15.5640    2.3150   -0.7820 C.ar    0  UNK0       -0.0357
     19  C         15.3490   -0.6260   -1.5610 C.ar    0  UNK0       -0.0447
     20  C         14.9080   -4.5250   -1.5630 C.3     0  UNK0        0.0197
     21  C         16.2080   -5.3450   -1.4850 C.3     0  UNK0       -0.0439
     22  C         15.3500   -6.6080   -1.3800 C.3     0  UNK0       -0.0521
     23  C         14.2260   -5.7120   -0.8520 C.3     0  UNK0       -0.0439
     24  C         13.3180   -2.7300   -0.8330 C.2     0  UNK0        0.2788
     25  O         12.4290   -2.7010   -1.6920 O.2     0  UNK0       -0.2684
     26  H         10.9980   -2.4910    0.6090 H       0  UNK0        0.0431
     27  H         11.7340   -0.9360    1.0000 H       0  UNK0        0.0431
     28  H         11.7740   -2.2620    2.1760 H       0  UNK0        0.0431
     29  H         13.7630   -2.0740    3.1550 H       0  UNK0        0.1257
     30  H         16.2460   -3.0540    0.6410 H       0  UNK0        0.2427
     31  H         16.3020   -3.3620   -3.4050 H       0  UNK0        0.0622
     32  H         17.1520   -1.6040   -4.8530 H       0  UNK0        0.0618
     33  H         16.7590    0.7670   -4.3240 H       0  UNK0        0.0624
     34  H         15.2560    2.4230   -4.1740 H       0  UNK0        0.0624
     35  H         14.7190    4.7840   -3.6580 H       0  UNK0        0.0618
     36  H         14.6860    5.5740   -1.3050 H       0  UNK0        0.0632
     37  H         15.8000    1.6480    0.0300 H       0  UNK0        0.0638
     38  H         14.8420   -0.3400   -0.6510 H       0  UNK0        0.0628
     39  H         14.5530   -4.5490   -2.5960 H       0  UNK0        0.0368
     40  H         16.7850   -5.1570   -0.5770 H       0  UNK0        0.0270
     41  H         16.8340   -5.3100   -2.3760 H       0  UNK0        0.0270
     42  H         15.1200   -7.0480   -2.3540 H       0  UNK0        0.0266
     43  H         15.7160   -7.3540   -0.6740 H       0  UNK0        0.0266
     44  H         14.2340   -5.6340    0.2370 H       0  UNK0        0.0270
     45  H         13.2340   -5.9640   -1.2300 H       0  UNK0        0.0270
     46  H         15.4220   -2.4980    2.8930 H       0  UNK0        0.1257
@<TRIPOS>BOND
     1     1     2    1
     2     1    26    1
     3     1    27    1
     4     1    28    1
     5     2     3    1
     6     2    24   am
     7     3     4    1
     8     3     5    1
     9     4    29    1
    10     4    46    1
    11     5     6    1
    12     5    30    1
    13     6     7    1
    14     6    20    1
    15     6    24    1
    16     7     8   ar
    17     7    19   ar
    18     8     9   ar
    19     8    31    1
    20     9    10   ar
    21     9    32    1
    22    10    11   ar
    23    10    33    1
    24    11    12    1
    25    11    19   ar
    26    12    13   ar
    27    12    18   ar
    28    13    14   ar
    29    13    34    1
    30    14    15   ar
    31    14    35    1
    32    15    16   ar
    33    15    36    1
    34    16    17    1
    35    16    18   ar
    36    18    37    1
    37    19    38    1
    38    20    21    1
    39    20    23    1
    40    20    39    1
    41    21    22    1
    42    21    40    1
    43    21    41    1
    44    22    23    1
    45    22    42    1
    46    22    43    1
    47    23    44    1
    48    23    45    1
    49    24    25    2
