../datasets/input/BACE/poses/14/ligand.pdb
 OpenBabel02191913393D

 46 49  0  0  1  0  0  0  0  0999 V2000
   11.7070   -2.3240    1.1520 C   0  0  0  0  0  0  0  0  0  0  0  0
   13.0800   -2.5320    0.6750 N   0  0  0  0  0  0  0  0  0  0  0  0
   14.2030   -2.4300    1.3980 C   0  0  1  0  0  0  0  0  0  0  0  0
   14.2890   -2.2310    2.7110 N   0  0  0  0  0  0  0  0  0  0  0  0
   15.2910   -2.5890    0.6540 N   0  3  0  0  0  0  0  0  0  0  0  0
   14.9790   -2.9820   -0.7080 C   0  0  2  0  0  0  0  0  0  0  0  0
   15.4750   -4.4510   -0.8100 C   0  0  0  0  0  0  0  0  0  0  0  0
   15.0160   -5.2710   -1.9950 C   0  0  0  0  0  0  0  0  0  0  0  0
   16.0510   -5.9030   -2.8810 C   0  0  0  0  0  0  0  0  0  0  0  0
   15.1860   -6.7770   -2.0220 C   0  0  0  0  0  0  0  0  0  0  0  0
   15.5530   -1.9670   -1.7160 C   0  0  0  0  0  0  0  0  0  0  0  0
   16.2220   -2.3570   -2.8990 C   0  0  0  0  0  0  0  0  0  0  0  0
   16.6510   -1.3900   -3.8250 C   0  0  0  0  0  0  0  0  0  0  0  0
   16.4180   -0.0250   -3.5810 C   0  0  0  0  0  0  0  0  0  0  0  0
   15.8040    0.4090   -2.3880 C   0  0  0  0  0  0  0  0  0  0  0  0
   15.5510    1.8450   -2.1200 C   0  0  0  0  0  0  0  0  0  0  0  0
   15.2560    2.7420   -3.1740 C   0  0  0  0  0  0  0  0  0  0  0  0
   14.9250    4.0880   -2.9140 C   0  0  0  0  0  0  0  0  0  0  0  0
   14.8970    4.5660   -1.5930 C   0  0  0  0  0  0  0  0  0  0  0  0
   15.2240    3.7030   -0.5360 C   0  0  0  0  0  0  0  0  0  0  0  0
   15.2030    4.2950    1.0850 Cl  0  0  0  0  0  0  0  0  0  0  0  0
   15.5520    2.3590   -0.8010 C   0  0  0  0  0  0  0  0  0  0  0  0
   15.3870   -0.5810   -1.4700 C   0  0  0  0  0  0  0  0  0  0  0  0
   13.4410   -2.8720   -0.6620 C   0  0  0  0  0  0  0  0  0  0  0  0
   12.6320   -3.0300   -1.5820 O   0  0  0  0  0  0  0  0  0  0  0  0
   11.6040   -2.6350    2.1920 H   0  0  0  0  0  0  0  0  0  0  0  0
   11.4530   -1.2670    1.0810 H   0  0  0  0  0  0  0  0  0  0  0  0
   10.9880   -2.8880    0.5560 H   0  0  0  0  0  0  0  0  0  0  0  0
   13.5000   -2.0140    3.3170 H   0  0  0  0  0  0  0  0  0  0  0  0
   16.2490   -2.5890    1.0090 H   0  0  0  0  0  0  0  0  0  0  0  0
   15.1580   -4.9960    0.0810 H   0  0  0  0  0  0  0  0  0  0  0  0
   16.5650   -4.4620   -0.7700 H   0  0  0  0  0  0  0  0  0  0  0  0
   14.1140   -4.9160   -2.4840 H   0  0  0  0  0  0  0  0  0  0  0  0
   15.8390   -5.7720   -3.9330 H   0  0  0  0  0  0  0  0  0  0  0  0
   17.0970   -5.8250   -2.6010 H   0  0  0  0  0  0  0  0  0  0  0  0
   15.6530   -7.2540   -1.1620 H   0  0  0  0  0  0  0  0  0  0  0  0
   14.4210   -7.3680   -2.5220 H   0  0  0  0  0  0  0  0  0  0  0  0
   16.4110   -3.3880   -3.1400 H   0  0  0  0  0  0  0  0  0  0  0  0
   17.1460   -1.6960   -4.7370 H   0  0  0  0  0  0  0  0  0  0  0  0
   16.7200    0.6930   -4.3260 H   0  0  0  0  0  0  0  0  0  0  0  0
   15.2350    2.3870   -4.1940 H   0  0  0  0  0  0  0  0  0  0  0  0
   14.6630    4.7530   -3.7240 H   0  0  0  0  0  0  0  0  0  0  0  0
   14.6230    5.5910   -1.3890 H   0  0  0  0  0  0  0  0  0  0  0  0
   15.7970    1.7150    0.0270 H   0  0  0  0  0  0  0  0  0  0  0  0
   14.8790   -0.2620   -0.5740 H   0  0  0  0  0  0  0  0  0  0  0  0
   15.2060   -2.2090    3.1540 H   0  0  0  0  0  0  0  0  0  0  0  0
  1  2  1  0  0  0  0
  1 26  1  0  0  0  0
  1 27  1  0  0  0  0
  1 28  1  0  0  0  0
  2  3  1  0  0  0  0
  2 24  1  0  0  0  0
  3  4  1  1  0  0  0
  3  5  1  0  0  0  0
  4 29  1  0  0  0  0
  4 46  1  0  0  0  0
  5  6  1  0  0  0  0
  5 30  1  0  0  0  0
  6  7  1  6  0  0  0
  6 11  1  0  0  0  0
  6 24  1  0  0  0  0
  7  8  1  0  0  0  0
  7 31  1  0  0  0  0
  7 32  1  0  0  0  0
  8  9  1  0  0  0  0
  8 10  1  0  0  0  0
  8 33  1  0  0  0  0
  9 10  1  0  0  0  0
  9 34  1  0  0  0  0
  9 35  1  0  0  0  0
 10 36  1  0  0  0  0
 10 37  1  0  0  0  0
 11 12  2  0  0  0  0
 11 23  1  0  0  0  0
 12 13  1  0  0  0  0
 12 38  1  0  0  0  0
 13 14  2  0  0  0  0
 13 39  1  0  0  0  0
 14 15  1  0  0  0  0
 14 40  1  0  0  0  0
 15 16  1  0  0  0  0
 15 23  2  0  0  0  0
 16 17  2  0  0  0  0
 16 22  1  0  0  0  0
 17 18  1  0  0  0  0
 17 41  1  0  0  0  0
 18 19  2  0  0  0  0
 18 42  1  0  0  0  0
 19 20  1  0  0  0  0
 19 43  1  0  0  0  0
 20 21  1  0  0  0  0
 20 22  2  0  0  0  0
 22 44  1  0  0  0  0
 23 45  1  0  0  0  0
 24 25  2  0  0  0  0
M  CHG  1   5   1
M  END
