../datasets/input/BACE/poses/25/ligand.pdb
 OpenBabel02191913393D

 50 53  0  0  1  0  0  0  0  0999 V2000
   14.8900    4.8690    1.3570 C   0  0  0  0  0  0  0  0  0  0  0  0
   15.4910    3.6590    0.9340 O   0  0  0  0  0  0  0  0  0  0  0  0
   15.4560    3.3610   -0.4090 C   0  0  0  0  0  0  0  0  0  0  0  0
   15.2030    4.3050   -1.4280 C   0  0  0  0  0  0  0  0  0  0  0  0
   15.2290    3.9020   -2.7750 C   0  0  0  0  0  0  0  0  0  0  0  0
   15.4670    2.5540   -3.1150 C   0  0  0  0  0  0  0  0  0  0  0  0
   15.6670    1.5800   -2.1110 C   0  0  0  0  0  0  0  0  0  0  0  0
   15.7990    0.1370   -2.4300 C   0  0  0  0  0  0  0  0  0  0  0  0
   16.3440   -0.3090   -3.6510 C   0  0  0  0  0  0  0  0  0  0  0  0
   16.4510   -1.6810   -3.9430 C   0  0  0  0  0  0  0  0  0  0  0  0
   15.9730   -2.6430   -3.0350 C   0  0  0  0  0  0  0  0  0  0  0  0
   15.3930   -2.2320   -1.8120 C   0  0  0  0  0  0  0  0  0  0  0  0
   14.8070   -3.2360   -0.8030 C   0  0  1  0  0  0  0  0  0  0  0  0
   15.1480   -4.7200   -1.0800 C   0  0  0  0  0  0  0  0  0  0  0  0
   16.3640   -5.2430   -0.5910 C   0  0  0  0  0  0  0  0  0  0  0  0
   16.7310   -6.5830   -0.7930 C   0  0  0  0  0  0  0  0  0  0  0  0
   15.8590   -7.4490   -1.4650 C   0  0  0  0  0  0  0  0  0  0  0  0
   14.6430   -6.9570   -1.9660 C   0  0  0  0  0  0  0  0  0  0  0  0
   14.2970   -5.6020   -1.7880 C   0  0  0  0  0  0  0  0  0  0  0  0
   15.2300   -2.9020    0.5590 N   0  3  0  0  0  0  0  0  0  0  0  0
   14.2090   -2.6080    1.3610 C   0  0  2  0  0  0  0  0  0  0  0  0
   14.3830   -2.3400    2.6580 N   0  0  0  0  0  0  0  0  0  0  0  0
   13.0410   -2.6280    0.7030 N   0  0  0  0  0  0  0  0  0  0  0  0
   11.7210   -2.2790    1.2430 C   0  0  0  0  0  0  0  0  0  0  0  0
   13.2870   -2.9900   -0.6540 C   0  0  0  0  0  0  0  0  0  0  0  0
   12.4100   -3.0490   -1.5240 O   0  0  0  0  0  0  0  0  0  0  0  0
   15.3370   -0.8450   -1.5240 C   0  0  0  0  0  0  0  0  0  0  0  0
   15.6870    2.0220   -0.7700 C   0  0  0  0  0  0  0  0  0  0  0  0
   14.8790    4.9110    2.4460 H   0  0  0  0  0  0  0  0  0  0  0  0
   15.4280    5.7410    0.9980 H   0  0  0  0  0  0  0  0  0  0  0  0
   13.8630    4.9310    1.0040 H   0  0  0  0  0  0  0  0  0  0  0  0
   15.0040    5.3420   -1.2030 H   0  0  0  0  0  0  0  0  0  0  0  0
   15.0420    4.6340   -3.5450 H   0  0  0  0  0  0  0  0  0  0  0  0
   15.4460    2.2650   -4.1550 H   0  0  0  0  0  0  0  0  0  0  0  0
   16.6910    0.4070   -4.3790 H   0  0  0  0  0  0  0  0  0  0  0  0
   16.8950   -1.9890   -4.8790 H   0  0  0  0  0  0  0  0  0  0  0  0
   16.0550   -3.6880   -3.3000 H   0  0  0  0  0  0  0  0  0  0  0  0
   17.0280   -4.6140   -0.0260 H   0  0  0  0  0  0  0  0  0  0  0  0
   17.6720   -6.9470   -0.4050 H   0  0  0  0  0  0  0  0  0  0  0  0
   16.1250   -8.4850   -1.5760 H   0  0  0  0  0  0  0  0  0  0  0  0
   13.9720   -7.6250   -2.4860 H   0  0  0  0  0  0  0  0  0  0  0  0
   13.3590   -5.2650   -2.1900 H   0  0  0  0  0  0  0  0  0  0  0  0
   16.2090   -2.9000    0.8450 H   0  0  0  0  0  0  0  0  0  0  0  0
   13.6430   -2.0450    3.2920 H   0  0  0  0  0  0  0  0  0  0  0  0
   10.9260   -2.8240    0.7340 H   0  0  0  0  0  0  0  0  0  0  0  0
   11.6590   -2.5070    2.3070 H   0  0  0  0  0  0  0  0  0  0  0  0
   11.5440   -1.2130    1.1040 H   0  0  0  0  0  0  0  0  0  0  0  0
   14.8870   -0.5180   -0.5990 H   0  0  0  0  0  0  0  0  0  0  0  0
   15.8630    1.3170    0.0230 H   0  0  0  0  0  0  0  0  0  0  0  0
   15.3280   -2.3480    3.0470 H   0  0  0  0  0  0  0  0  0  0  0  0
  1  2  1  0  0  0  0
  1 29  1  0  0  0  0
  1 30  1  0  0  0  0
  1 31  1  0  0  0  0
  2  3  1  0  0  0  0
  3  4  2  0  0  0  0
  3 28  1  0  0  0  0
  4  5  1  0  0  0  0
  4 32  1  0  0  0  0
  5  6  2  0  0  0  0
  5 33  1  0  0  0  0
  6  7  1  0  0  0  0
  6 34  1  0  0  0  0
  7  8  1  0  0  0  0
  7 28  2  0  0  0  0
  8  9  2  0  0  0  0
  8 27  1  0  0  0  0
  9 10  1  0  0  0  0
  9 35  1  0  0  0  0
 10 11  2  0  0  0  0
 10 36  1  0  0  0  0
 11 12  1  0  0  0  0
 11 37  1  0  0  0  0
 12 27  2  0  0  0  0
 13 12  1  6  0  0  0
 13 14  1  0  0  0  0
 13 20  1  0  0  0  0
 13 25  1  0  0  0  0
 14 15  2  0  0  0  0
 14 19  1  0  0  0  0
 15 16  1  0  0  0  0
 15 38  1  0  0  0  0
 16 17  2  0  0  0  0
 16 39  1  0  0  0  0
 17 18  1  0  0  0  0
 17 40  1  0  0  0  0
 18 19  2  0  0  0  0
 18 41  1  0  0  0  0
 19 42  1  0  0  0  0
 20 21  1  0  0  0  0
 20 43  1  0  0  0  0
 21 22  1  1  0  0  0
 21 23  1  0  0  0  0
 22 44  1  0  0  0  0
 22 50  1  0  0  0  0
 23 24  1  0  0  0  0
 23 25  1  0  0  0  0
 24 45  1  0  0  0  0
 24 46  1  0  0  0  0
 24 47  1  0  0  0  0
 25 26  2  0  0  0  0
 27 48  1  0  0  0  0
 28 49  1  0  0  0  0
M  CHG  1  20   1
M  END
